cp: cannot stat 'results/LSU/*/LSU_scaffolds.fasta': No such file or directory
cp: cannot stat 'results/ITSx/*/ITSx.full.fasta': No such file or directory
nthread = 0
nthreadpair = 0
nthreadtb = 0
ppenalty_ex = 0
stacksize: 8192 kb
generating a scoring matrix for nucleotide (dist=200) ... done
Gap Penalty = -1.53, +0.00, +0.00



Making a distance matrix ..

There are 4 ambiguous characters.
    1 / 18
done.

Constructing a UPGMA tree (efffree=0) ... 
    0 / 18   10 / 18
done.

Progressive alignment 1/2... 
STEP     1 / 17  fSTEP     2 / 17  fSTEP     3 / 17  fSTEP     4 / 17  fSTEP     5 / 17  fSTEP     6 / 17  fSTEP     7 / 17  fSTEP     8 / 17  fSTEP     9 / 17  fSTEP    10 / 17  fSTEP    11 / 17  fSTEP    12 / 17  fSTEP    13 / 17  fSTEP    14 / 17  fSTEP    15 / 17  fSTEP    16 / 17  fSTEP    17 / 17  f
done.

Making a distance matrix from msa.. 
    0 / 18
done.

Constructing a UPGMA tree (efffree=1) ... 
    0 / 18   10 / 18
done.

Progressive alignment 2/2... 
STEP     1 / 17  fSTEP     2 / 17  fSTEP     3 / 17  fSTEP     4 / 17  fSTEP     5 / 17  fSTEP     6 / 17  fSTEP     7 / 17  fSTEP     8 / 17  fSTEP     9 / 17  fSTEP    10 / 17  fSTEP    11 / 17  fSTEP    12 / 17  fSTEP    13 / 17  fSTEP    14 / 17  fSTEP    15 / 17  fSTEP    16 / 17  fSTEP    17 / 17  f
done.

disttbfast (nuc) Version 7.505
alg=A, model=DNA200 (2), 1.53 (4.59), -0.00 (-0.00), noshift, amax=0.0
0 thread(s)


Strategy:
 FFT-NS-2 (Fast but rough)
 Progressive method (guide trees were built 2 times.)

If unsure which option to use, try 'mafft --auto input > output'.
For more information, see 'mafft --help', 'mafft --man' and the mafft page.

The default gap scoring scheme has been changed in version 7.110 (2013 Oct).
It tends to insert more gaps into gap-rich regions than previous versions.
To disable this change, add the --leavegappyregion option.


Determining smart-gap threshold...

-------------
| Arguments |
-------------
Input file: aln_LSU/ALL_LSU_full.fasaln (format: fasta)
Output file: aln_LSU/ALL_LSU_full.fasaln.clipkit (format: fasta)
Gaps threshold: 0.9444
Trimming mode: smart-gap
Create complementary output: False
Create log file: False


------------------------
| Processing Alignment |
------------------------

  0%|          | 0/4290 [00:00<?, ?it/s] 40%|███▉      | 1715/4290 [00:00<00:00, 17146.62it/s] 80%|████████  | 3453/4290 [00:00<00:00, 17277.05it/s]100%|██████████| 4290/4290 [00:00<00:00, 17231.95it/s]


------------------------
| Writing output files |
------------------------
trimmed alignment: aln_LSU/ALL_LSU_full.fasaln.clipkit
complement file: False
log file: False


---------------------
| Output Statistics |
---------------------
Number of sites kept: 1828
Number of sites trimmed: 2462

Percentage of alignment trimmed: 57.389%

Execution time: 0.519s

Checkpoint (aln_LSU/ALL_LSU_full.fasaln.clipkit.ckp.gz) indicates that a previous run successfully finished
Use `-redo` option if you really want to redo the analysis and overwrite all output files.
Use `--redo-tree` option if you want to restore ModelFinder and only redo tree search.
Use `--undo` option if you want to continue previous run when changing/adding options.
nthread = 0
nthreadpair = 0
nthreadtb = 0
ppenalty_ex = 0
stacksize: 8192 kb
generating a scoring matrix for nucleotide (dist=200) ... done
Gap Penalty = -1.53, +0.00, +0.00



Making a distance matrix ..

There are 1 ambiguous characters.
    1 / 31
done.

Constructing a UPGMA tree (efffree=0) ... 
    0 / 31   10 / 31   20 / 31
done.

Progressive alignment 1/2... 
STEP     1 / 30  fSTEP     2 / 30  fSTEP     3 / 30  fSTEP     4 / 30  fSTEP     5 / 30  fSTEP     6 / 30  fSTEP     7 / 30  fSTEP     8 / 30  fSTEP     9 / 30  fSTEP    10 / 30  fSTEP    11 / 30  fSTEP    12 / 30  fSTEP    13 / 30  fSTEP    14 / 30  fSTEP    15 / 30  fSTEP    16 / 30  fSTEP    17 / 30  fSTEP    18 / 30  fSTEP    19 / 30  fSTEP    20 / 30  fSTEP    21 / 30  fSTEP    22 / 30  fSTEP    23 / 30  fSTEP    24 / 30  fSTEP    25 / 30  fSTEP    26 / 30  fSTEP    27 / 30  f
Reallocating..done. *alloclen = 2410
STEP    28 / 30  fSTEP    29 / 30  fSTEP    30 / 30  f
done.

Making a distance matrix from msa.. 
    0 / 31
done.

Constructing a UPGMA tree (efffree=1) ... 
    0 / 31   10 / 31   20 / 31
done.

Progressive alignment 2/2... 
STEP     1 / 30  fSTEP     2 / 30  fSTEP     3 / 30  fSTEP     4 / 30  fSTEP     5 / 30  fSTEP     6 / 30  fSTEP     7 / 30  fSTEP     8 / 30  fSTEP     9 / 30  fSTEP    10 / 30  fSTEP    11 / 30  fSTEP    12 / 30  fSTEP    13 / 30  fSTEP    14 / 30  fSTEP    15 / 30  fSTEP    16 / 30  fSTEP    17 / 30  fSTEP    18 / 30  fSTEP    19 / 30  fSTEP    20 / 30  fSTEP    21 / 30  fSTEP    22 / 30  fSTEP    23 / 30  fSTEP    24 / 30  fSTEP    25 / 30  fSTEP    26 / 30  fSTEP    27 / 30  f
Reallocating..done. *alloclen = 2408
STEP    28 / 30  fSTEP    29 / 30  fSTEP    30 / 30  f
done.

disttbfast (nuc) Version 7.505
alg=A, model=DNA200 (2), 1.53 (4.59), -0.00 (-0.00), noshift, amax=0.0
0 thread(s)


Strategy:
 FFT-NS-2 (Fast but rough)
 Progressive method (guide trees were built 2 times.)

If unsure which option to use, try 'mafft --auto input > output'.
For more information, see 'mafft --help', 'mafft --man' and the mafft page.

The default gap scoring scheme has been changed in version 7.110 (2013 Oct).
It tends to insert more gaps into gap-rich regions than previous versions.
To disable this change, add the --leavegappyregion option.


Determining smart-gap threshold...

-------------
| Arguments |
-------------
Input file: aln_ITS/ALL_ITS_full.fasaln (format: fasta)
Output file: aln_ITS/ALL_ITS_full.fasaln.clipkit (format: fasta)
Gaps threshold: 0.871
Trimming mode: smart-gap
Create complementary output: False
Create log file: False


------------------------
| Processing Alignment |
------------------------

  0%|          | 0/786 [00:00<?, ?it/s]100%|██████████| 786/786 [00:00<00:00, 11032.25it/s]


------------------------
| Writing output files |
------------------------
trimmed alignment: aln_ITS/ALL_ITS_full.fasaln.clipkit
complement file: False
log file: False


---------------------
| Output Statistics |
---------------------
Number of sites kept: 671
Number of sites trimmed: 115

Percentage of alignment trimmed: 14.631%

Execution time: 0.158s

IQ-TREE multicore version 2.2.2.6 COVID-edition for Linux 64-bit built May 27 2023
Developed by Bui Quang Minh, James Barbetti, Nguyen Lam Tung,
Olga Chernomor, Heiko Schmidt, Dominik Schrempf, Michael Woodhams, Ly Trong Nhan.

Host:    c42 (AVX, FMA3, 503 GB RAM)
Command: iqtree2 -nt AUTO -s aln_ITS/ALL_ITS_full.fasaln.clipkit -alrt 1000 -bb 1000 -m MFP
Seed:    864067 (Using SPRNG - Scalable Parallel Random Number Generator)
Time:    Mon Feb 12 14:10:45 2024
Kernel:  AVX+FMA - auto-detect threads (16 CPU cores detected)

Reading alignment file aln_ITS/ALL_ITS_full.fasaln.clipkit ... Fasta format detected
Reading fasta file: done in 0.000560045 secs using 33.39% CPU
Alignment most likely contains DNA/RNA sequences
Constructing alignment: done in 0.00213099 secs using 800.3% CPU
Alignment has 31 sequences with 671 columns, 304 distinct patterns
163 parsimony-informative, 81 singleton sites, 427 constant sites
                                          Gap/Ambiguity  Composition  p-value
Analyzing sequences: done in 9.82285e-05 secs using 1054% CPU
   1  coniochaeta_sp_jdc7.sorted_scaffold_68|F   26.97%    passed     67.22%
   2  NR_189971.1                                16.84%    passed     96.30%
   3  NR_185589.1                                11.62%    passed     95.12%
   4  NR_177572.1                                35.17%    passed     90.32%
   5  NR_177571.1                                35.17%    passed     96.06%
   6  NR_175055.1                                10.13%    passed     71.18%
   7  NR_173009.1                                18.18%    passed     77.40%
   8  NR_172554.1                                19.08%    passed     80.67%
   9  NR_168225.1                                26.08%    passed     98.14%
  10  NR_167688.1                                 1.49%    passed     60.66%
  11  NR_164024.1                                22.06%    passed     98.58%
  12  NR_159779.1                                26.23%    passed     90.31%
  13  NR_159776.1                                28.17%    passed     83.98%
  14  NR_159774.1                                23.99%    passed     51.91%
  15  NR_159772.1                                24.89%    passed     66.43%
  16  NR_121521.1                                 2.68%    passed     31.41%
  17  NR_121473.1                                 9.39%    passed     86.95%
  18  NR_120211.1                                13.71%    passed     92.38%
  19  NR_111520.1                                27.12%    passed     97.09%
  20  NR_111519.1                                26.97%    passed     95.39%
  21  NR_111517.1                                26.53%    passed     73.43%
  22  NR_154808.1                                 3.28%    passed     83.92%
  23  NR_157509.1                                15.05%    passed     93.95%
  24  NR_157508.1                                14.61%    passed     99.64%
  25  NR_157478.1                                11.62%    passed     85.19%
  26  NR_154770.1                                26.97%    passed     72.42%
  27  NR_154769.1                                26.97%    passed     94.26%
  28  NR_144912.1                                28.32%    passed     86.25%
  29  NR_137725.1                                19.82%    passed     99.31%
  30  NR_137037.1                                19.97%    passed     94.38%
  31  NR_171740.1                                22.50%    passed     81.44%
****  TOTAL                                      20.05%  0 sequences failed composition chi2 test (p-value<5%; df=3)
Checking for duplicate sequences: done in 0.000302076 secs using 945.8% CPU


Create initial parsimony tree by phylogenetic likelihood library (PLL)... 0.002 seconds
Measuring multi-threading efficiency up to 16 CPU cores
Increase to 10 rounds for branch lengths
242 trees examined
Threads: 1 / Time: 16.034 sec / Speedup: 1.000 / Efficiency: 100% / LogL: -5361
Threads: 2 / Time: 11.614 sec / Speedup: 1.381 / Efficiency: 69% / LogL: -5361
Threads: 3 / Time: 10.864 sec / Speedup: 1.476 / Efficiency: 49% / LogL: -5361
Determining AUTO threadcount: done in 38.5221 secs using 188.8% CPU
BEST NUMBER OF THREADS: 2

Perform fast likelihood tree search using GTR+I+G model...
Estimate model parameters (epsilon = 5.000)
Perform nearest neighbor interchange...
Optimizing NNI: done in 0.0751331 secs using 251.7% CPU
Estimate model parameters (epsilon = 1.000)
1. Initial log-likelihood: -4075.892
Optimal log-likelihood: -4075.702
Rate parameters:  A-C: 1.42668  A-G: 1.84738  A-T: 1.00913  C-G: 1.08096  C-T: 4.94871  G-T: 1.00000
Base frequencies:  A: 0.243  C: 0.264  G: 0.268  T: 0.224
Proportion of invariable sites: 0.327
Gamma shape alpha: 0.473
Parameters optimization took 1 rounds (0.040 sec)
Time for fast ML tree search: 0.259 seconds

NOTE: ModelFinder requires 4 MB RAM!
ModelFinder will test up to 484 DNA models (sample size: 671) ...
 No. Model         -LnL         df  AIC          AICc         BIC
  1  GTR+F         4410.679     67  8955.359     8970.470     9257.446
  2  GTR+F+I       4143.192     68  8422.384     8437.972     8728.980
  3  GTR+F+G4      4085.858     68  8307.716     8323.304     8614.312
  4  GTR+F+I+G4    4075.553     69  8289.106     8305.179     8600.211
  5  GTR+F+R2      4096.564     69  8331.128     8347.201     8642.233
  6  GTR+F+R3      4068.849     71  8279.698     8296.767     8599.821
  7  GTR+F+R4      4068.664     73  8283.328     8301.425     8612.468
 14  GTR+F+I+R2    4071.832     70  8283.663     8300.230     8599.277
 15  GTR+F+I+R3    4068.685     72  8281.369     8298.948     8606.000
 26  SYM+I+G4      4079.031     66  8290.062     8304.704     8587.641
 28  SYM+R3        4072.581     68  8281.162     8296.750     8587.759
 36  SYM+I+R2      4075.230     67  8284.459     8299.570     8586.547
 37  SYM+I+R3      4072.523     69  8283.047     8299.120     8594.152
 48  TVM+F+I+G4    4096.262     68  8328.524     8344.112     8635.120
 50  TVM+F+R3      4087.960     70  8315.920     8332.487     8631.534
 58  TVM+F+I+R2    4089.925     69  8317.850     8333.923     8628.955
 59  TVM+F+I+R3    4087.856     71  8317.713     8334.781     8637.835
 70  TVMe+I+G4     4096.130     65  8322.261     8336.442     8615.331
 72  TVMe+R3       4088.833     67  8311.665     8326.776     8613.753
 80  TVMe+I+R2     4090.354     66  8312.708     8327.350     8610.287
 81  TVMe+I+R3     4088.584     68  8313.168     8328.756     8619.765
 92  TIM3+F+I+G4   4076.369     67  8286.737     8301.849     8588.825
 94  TIM3+F+R3     4069.960     69  8277.920     8293.993     8589.025
102  TIM3+F+I+R2   4072.838     68  8281.676     8297.264     8588.272
103  TIM3+F+I+R3   4069.956     70  8279.913     8296.480     8595.527
114  TIM3e+I+G4    4079.446     64  8286.891     8300.620     8575.452
116  TIM3e+R3      4073.255     66  8278.510     8293.152     8576.089
124  TIM3e+I+R2    4075.748     65  8281.495     8295.677     8574.565
125  TIM3e+I+R3    4073.167     67  8280.334     8295.445     8582.422
136  TIM2+F+I+G4   4076.526     67  8287.052     8302.163     8589.140
138  TIM2+F+R3     4069.935     69  8277.870     8293.943     8588.975
146  TIM2+F+I+R2   4073.259     68  8282.518     8298.106     8589.114
147  TIM2+F+I+R3   4070.026     70  8280.052     8296.618     8595.665
158  TIM2e+I+G4    4081.861     64  8291.722     8305.452     8580.284
160  TIM2e+R3      4075.549     66  8283.099     8297.741     8580.678
168  TIM2e+I+R2    4078.369     65  8286.738     8300.920     8579.808
169  TIM2e+I+R3    4075.583     67  8285.166     8300.277     8587.254
180  TIM+F+I+G4    4076.686     67  8287.371     8302.482     8589.459
182  TIM+F+R3      4070.370     69  8278.741     8294.814     8589.846
190  TIM+F+I+R2    4073.413     68  8282.826     8298.414     8589.422
191  TIM+F+I+R3    4070.396     70  8280.792     8297.358     8596.405
202  TIMe+I+G4     4081.664     64  8291.328     8305.057     8579.889
204  TIMe+R3       4075.485     66  8282.970     8297.613     8580.549
212  TIMe+I+R2     4078.139     65  8286.279     8300.460     8579.349
213  TIMe+I+R3     4075.464     67  8284.929     8300.040     8587.016
224  TPM3u+F+I+G4  4097.210     66  8326.420     8341.063     8623.999
226  TPM3u+F+R3    4089.379     68  8314.757     8330.345     8621.354
234  TPM3u+F+I+R2  4091.094     67  8316.189     8331.300     8618.276
235  TPM3u+F+I+R3  4089.185     69  8316.369     8332.442     8627.474
246  TPM3+I+G4     4096.648     63  8319.297     8332.582     8603.349
248  TPM3+R3       4089.500     65  8309.000     8323.182     8602.070
256  TPM3+I+R2     4090.917     64  8309.835     8323.564     8598.396
257  TPM3+I+R3     4089.208     66  8310.416     8325.058     8607.995
268  TPM2u+F+I+G4  4097.557     66  8327.113     8341.756     8624.692
270  TPM2u+F+R3    4089.283     68  8314.565     8330.153     8621.161
278  TPM2u+F+I+R2  4091.350     67  8316.700     8331.811     8618.788
279  TPM2u+F+I+R3  4089.226     69  8316.451     8332.525     8627.556
290  TPM2+I+G4     4099.082     63  8324.165     8337.450     8608.217
292  TPM2+R3       4091.596     65  8313.193     8327.375     8606.263
300  TPM2+I+R2     4093.252     64  8314.505     8328.234     8603.066
301  TPM2+I+R3     4091.426     66  8314.851     8329.494     8612.430
312  K3Pu+F+I+G4   4097.749     66  8327.499     8342.141     8625.078
314  K3Pu+F+R3     4089.751     68  8315.503     8331.091     8622.099
322  K3Pu+F+I+R2   4091.578     67  8317.157     8332.268     8619.244
323  K3Pu+F+I+R3   4089.583     69  8317.167     8333.240     8628.272
334  K3P+I+G4      4098.825     63  8323.649     8336.934     8607.702
336  K3P+R3        4091.490     65  8312.980     8327.162     8606.050
344  K3P+I+R2      4093.002     64  8314.005     8327.734     8602.566
345  K3P+I+R3      4091.242     66  8314.484     8329.126     8612.062
356  TN+F+I+G4     4077.197     66  8286.394     8301.036     8583.972
358  TN+F+R3       4070.891     68  8277.782     8293.370     8584.378
366  TN+F+I+R2     4073.896     67  8281.792     8296.903     8583.880
367  TN+F+I+R3     4070.915     69  8279.831     8295.904     8590.936
378  TNe+I+G4      4082.021     63  8290.041     8303.326     8574.094
380  TNe+R3        4075.935     65  8281.870     8296.052     8574.940
388  TNe+I+R2      4078.529     64  8285.058     8298.788     8573.620
389  TNe+I+R3      4075.872     66  8283.743     8298.386     8581.322
400  HKY+F+I+G4    4098.136     65  8326.272     8340.454     8619.342
402  HKY+F+R3      4090.293     67  8314.586     8329.697     8616.674
410  HKY+F+I+R2    4092.092     66  8316.183     8330.826     8613.762
411  HKY+F+I+R3    4090.128     68  8316.256     8331.844     8622.852
422  K2P+I+G4      4099.182     62  8322.364     8335.213     8601.908
424  K2P+R3        4091.906     64  8311.813     8325.542     8600.374
432  K2P+I+R2      4093.413     63  8312.825     8326.110     8596.878
433  K2P+I+R3      4091.669     65  8313.339     8327.521     8606.409
444  F81+F+I+G4    4163.009     64  8454.019     8467.748     8742.580
446  F81+F+R3      4155.866     66  8443.732     8458.374     8741.311
454  F81+F+I+R2    4157.172     65  8444.343     8458.525     8737.413
455  F81+F+I+R3    4155.473     67  8444.946     8460.057     8747.033
466  JC+I+G4       4161.909     61  8445.818     8458.239     8720.853
468  JC+R3         4155.129     63  8436.259     8449.544     8720.311
476  JC+I+R2       4156.309     62  8436.618     8449.466     8716.161
477  JC+I+R3       4154.765     64  8437.529     8451.259     8726.090
Akaike Information Criterion:           TN+F+R3
Corrected Akaike Information Criterion: TIM3e+R3
Bayesian Information Criterion:         TNe+I+R2
Best-fit model: TNe+I+R2 chosen according to BIC

All model information printed to aln_ITS/ALL_ITS_full.fasaln.clipkit.model.gz
CPU time for ModelFinder: 106.173 seconds (0h:1m:46s)
Wall-clock time for ModelFinder: 55.376 seconds (0h:0m:55s)
Generating 1000 samples for ultrafast bootstrap (seed: 864067)...

NOTE: 1 MB RAM (0 GB) is required!
Estimate model parameters (epsilon = 0.100)
1. Initial log-likelihood: -4078.529
Optimal log-likelihood: -4078.527
Rate parameters:  A-C: 1.00000  A-G: 1.75874  A-T: 1.00000  C-G: 1.00000  C-T: 3.94869  G-T: 1.00000
Base frequencies:  A: 0.250  C: 0.250  G: 0.250  T: 0.250
Proportion of invariable sites: 0.530
Site proportion and rates:  (0.367,1.045) (0.104,5.935)
Parameters optimization took 1 rounds (0.016 sec)
Wrote distance file to... 
Computing ML distances based on estimated model parameters...
Calculating distance matrix: done in 0.0023551 secs using 221.3% CPU
Computing ML distances took 0.002521 sec (of wall-clock time) 0.005379 sec (of CPU time)
Setting up auxiliary I and S matrices: done in 0.000163078 secs using 142.3% CPU
Constructing RapidNJ tree: done in 0.000936985 secs using 236.5% CPU
Computing RapidNJ tree took 0.001241 sec (of wall-clock time) 0.002590 sec (of CPU time)
Log-likelihood of RapidNJ tree: -4110.122
--------------------------------------------------------------------
|             INITIALIZING CANDIDATE TREE SET                      |
--------------------------------------------------------------------
Generating 98 parsimony trees... 0.301 second
Computing log-likelihood of 98 initial trees ... 0.408 seconds
Current best score: -4078.527

Do NNI search on 20 best initial trees
Optimizing NNI: done in 0.0237119 secs using 198.6% CPU
Estimate model parameters (epsilon = 0.100)
BETTER TREE FOUND at iteration 1: -4078.526
Optimizing NNI: done in 0.0580201 secs using 199% CPU
Estimate model parameters (epsilon = 0.100)
BETTER TREE FOUND at iteration 2: -4076.121
Optimizing NNI: done in 0.070668 secs using 198.7% CPU
Optimizing NNI: done in 0.0399392 secs using 196.7% CPU
Optimizing NNI: done in 0.0557261 secs using 191% CPU
Optimizing NNI: done in 0.0311201 secs using 198.5% CPU
Optimizing NNI: done in 0.0570209 secs using 195.3% CPU
Optimizing NNI: done in 0.0391731 secs using 196.4% CPU
Optimizing NNI: done in 0.0536702 secs using 197.1% CPU
Optimizing NNI: done in 0.06531 secs using 199.1% CPU
Iteration 10 / LogL: -4076.876 / Time: 0h:0m:1s
Optimizing NNI: done in 0.0509641 secs using 198.9% CPU
Optimizing NNI: done in 0.0750661 secs using 194.4% CPU
Estimate model parameters (epsilon = 0.100)
BETTER TREE FOUND at iteration 12: -4076.016
Optimizing NNI: done in 0.056973 secs using 198% CPU
Optimizing NNI: done in 0.0349181 secs using 198% CPU
Optimizing NNI: done in 0.0866721 secs using 198.8% CPU
Optimizing NNI: done in 0.0735209 secs using 195.1% CPU
Optimizing NNI: done in 0.076741 secs using 198.8% CPU
Optimizing NNI: done in 0.0631599 secs using 198.4% CPU
Optimizing NNI: done in 0.091203 secs using 197.9% CPU
Optimizing NNI: done in 0.0450001 secs using 192.4% CPU
Iteration 20 / LogL: -4077.532 / Time: 0h:0m:2s
Finish initializing candidate tree set (15)
Current best tree score: -4076.016 / CPU time: 1.957
Number of iterations: 20
--------------------------------------------------------------------
|               OPTIMIZING CANDIDATE TREE SET                      |
--------------------------------------------------------------------
Optimizing NNI: done in 0.0783162 secs using 198.4% CPU
Optimizing NNI: done in 0.082407 secs using 198.3% CPU
Optimizing NNI: done in 0.0712888 secs using 199.7% CPU
Optimizing NNI: done in 0.102346 secs using 197.7% CPU
Optimizing NNI: done in 0.089509 secs using 198.6% CPU
Optimizing NNI: done in 0.126788 secs using 199.4% CPU
Optimizing NNI: done in 0.089093 secs using 197.8% CPU
Optimizing NNI: done in 0.0642889 secs using 196.4% CPU
Optimizing NNI: done in 0.0736952 secs using 198.3% CPU
Optimizing NNI: done in 0.075793 secs using 197.7% CPU
Iteration 30 / LogL: -4078.244 / Time: 0h:0m:2s (0h:0m:8s left)
Optimizing NNI: done in 0.091861 secs using 198.7% CPU
Optimizing NNI: done in 0.111644 secs using 197.7% CPU
Optimizing NNI: done in 0.066283 secs using 198.1% CPU
Optimizing NNI: done in 0.139241 secs using 198.1% CPU
Optimizing NNI: done in 0.109121 secs using 197.6% CPU
Optimizing NNI: done in 0.076405 secs using 197.8% CPU
Optimizing NNI: done in 0.0895829 secs using 198% CPU
Optimizing NNI: done in 0.058975 secs using 199.6% CPU
Optimizing NNI: done in 0.0748091 secs using 197.6% CPU
Optimizing NNI: done in 0.0669491 secs using 197.5% CPU
Iteration 40 / LogL: -4083.356 / Time: 0h:0m:3s (0h:0m:7s left)
Optimizing NNI: done in 0.068357 secs using 197.7% CPU
Optimizing NNI: done in 0.064441 secs using 197.4% CPU
Optimizing NNI: done in 0.0792029 secs using 194% CPU
Optimizing NNI: done in 0.0858731 secs using 199.1% CPU
Optimizing NNI: done in 0.0796542 secs using 198.2% CPU
Optimizing NNI: done in 0.0783019 secs using 198.3% CPU
Optimizing NNI: done in 0.0815399 secs using 199.5% CPU
Optimizing NNI: done in 0.07025 secs using 197.3% CPU
Optimizing NNI: done in 0.093709 secs using 199.4% CPU
Optimizing NNI: done in 0.0770049 secs using 197.7% CPU
Iteration 50 / LogL: -4078.020 / Time: 0h:0m:4s (0h:0m:6s left)
Log-likelihood cutoff on original alignment: -4103.513
Optimizing NNI: done in 0.108505 secs using 199.1% CPU
Optimizing NNI: done in 0.0675561 secs using 198.2% CPU
Optimizing NNI: done in 0.0833251 secs using 197.1% CPU
Optimizing NNI: done in 0.074029 secs using 198% CPU
Optimizing NNI: done in 0.079752 secs using 198.3% CPU
Optimizing NNI: done in 0.0695841 secs using 199% CPU
Optimizing NNI: done in 0.085634 secs using 199.5% CPU
Optimizing NNI: done in 0.083313 secs using 199% CPU
Optimizing NNI: done in 0.073586 secs using 198.2% CPU
Optimizing NNI: done in 0.084409 secs using 197.3% CPU
Iteration 60 / LogL: -4076.021 / Time: 0h:0m:5s (0h:0m:5s left)
Optimizing NNI: done in 0.0627439 secs using 198.1% CPU
Optimizing NNI: done in 0.08249 secs using 197.6% CPU
Optimizing NNI: done in 0.111566 secs using 198.1% CPU
Optimizing NNI: done in 0.0805991 secs using 197% CPU
Optimizing NNI: done in 0.0676479 secs using 197.8% CPU
Optimizing NNI: done in 0.0747521 secs using 198.1% CPU
Optimizing NNI: done in 0.0983498 secs using 199.9% CPU
Optimizing NNI: done in 0.078135 secs using 195.2% CPU
Optimizing NNI: done in 0.0721791 secs using 199.5% CPU
Optimizing NNI: done in 0.079555 secs using 197.9% CPU
Iteration 70 / LogL: -4076.113 / Time: 0h:0m:6s (0h:0m:4s left)
Optimizing NNI: done in 0.0658221 secs using 199.7% CPU
Optimizing NNI: done in 0.0752351 secs using 198.9% CPU
Optimizing NNI: done in 0.0725319 secs using 198% CPU
Optimizing NNI: done in 0.0876081 secs using 196.1% CPU
Optimizing NNI: done in 0.070364 secs using 199.2% CPU
Optimizing NNI: done in 0.104073 secs using 199.3% CPU
Optimizing NNI: done in 0.09179 secs using 195.7% CPU
Optimizing NNI: done in 0.100832 secs using 197.2% CPU
Optimizing NNI: done in 0.0615871 secs using 199% CPU
Optimizing NNI: done in 0.088764 secs using 199.1% CPU
Iteration 80 / LogL: -4076.452 / Time: 0h:0m:7s (0h:0m:3s left)
Optimizing NNI: done in 0.0576248 secs using 198% CPU
Optimizing NNI: done in 0.119516 secs using 196.5% CPU
Optimizing NNI: done in 0.062804 secs using 197.9% CPU
Optimizing NNI: done in 0.0839589 secs using 197.6% CPU
Optimizing NNI: done in 0.121684 secs using 196.2% CPU
Optimizing NNI: done in 0.0487471 secs using 198.4% CPU
Optimizing NNI: done in 0.075268 secs using 196.6% CPU
Optimizing NNI: done in 0.082526 secs using 198.4% CPU
Optimizing NNI: done in 0.0863018 secs using 199.8% CPU
Optimizing NNI: done in 0.0823052 secs using 199% CPU
Iteration 90 / LogL: -4087.174 / Time: 0h:0m:8s (0h:0m:2s left)
Optimizing NNI: done in 0.0783141 secs using 197.4% CPU
Optimizing NNI: done in 0.0741329 secs using 195.4% CPU
Optimizing NNI: done in 0.0769749 secs using 199% CPU
Optimizing NNI: done in 0.0933492 secs using 197.6% CPU
Optimizing NNI: done in 0.085439 secs using 197.8% CPU
Optimizing NNI: done in 0.096596 secs using 199.1% CPU
Optimizing NNI: done in 0.0712478 secs using 199% CPU
Optimizing NNI: done in 0.067668 secs using 199.2% CPU
Optimizing NNI: done in 0.0874541 secs using 199.4% CPU
Optimizing NNI: done in 0.078593 secs using 198.3% CPU
Iteration 100 / LogL: -4083.922 / Time: 0h:0m:9s (0h:0m:1s left)
Log-likelihood cutoff on original alignment: -4102.282
NOTE: Bootstrap correlation coefficient of split occurrence frequencies: 0.988
NOTE: UFBoot does not converge, continue at least 100 more iterations
Optimizing NNI: done in 0.123258 secs using 199.1% CPU
Optimizing NNI: done in 0.07623 secs using 199.6% CPU
Optimizing NNI: done in 0.0724368 secs using 199% CPU
Optimizing NNI: done in 0.056042 secs using 199.2% CPU
Optimizing NNI: done in 0.077065 secs using 196.2% CPU
Optimizing NNI: done in 0.0720611 secs using 199.1% CPU
Optimizing NNI: done in 0.0502539 secs using 199.7% CPU
Optimizing NNI: done in 0.080415 secs using 199.2% CPU
Optimizing NNI: done in 0.09602 secs using 198.9% CPU
Optimizing NNI: done in 0.110997 secs using 199.1% CPU
Iteration 110 / LogL: -4078.154 / Time: 0h:0m:10s (0h:0m:8s left)
Optimizing NNI: done in 0.0997379 secs using 199.3% CPU
Optimizing NNI: done in 0.080255 secs using 198% CPU
Optimizing NNI: done in 0.070384 secs using 199% CPU
UPDATE BEST LOG-LIKELIHOOD: -4076.016
Optimizing NNI: done in 0.0796099 secs using 199% CPU
Optimizing NNI: done in 0.0664072 secs using 197.7% CPU
Optimizing NNI: done in 0.063175 secs using 199.7% CPU
Optimizing NNI: done in 0.069355 secs using 199% CPU
Optimizing NNI: done in 0.0869322 secs using 199% CPU
Optimizing NNI: done in 0.104034 secs using 197.8% CPU
Optimizing NNI: done in 0.074791 secs using 199.1% CPU
Iteration 120 / LogL: -4076.141 / Time: 0h:0m:11s (0h:0m:7s left)
Optimizing NNI: done in 0.064446 secs using 197.6% CPU
Optimizing NNI: done in 0.087127 secs using 199.1% CPU
Optimizing NNI: done in 0.0737779 secs using 196% CPU
Optimizing NNI: done in 0.089185 secs using 199.4% CPU
Optimizing NNI: done in 0.108155 secs using 199.1% CPU
Optimizing NNI: done in 0.08112 secs using 199% CPU
Optimizing NNI: done in 0.0913498 secs using 199.1% CPU
Optimizing NNI: done in 0.0775652 secs using 198.7% CPU
Optimizing NNI: done in 0.077863 secs using 198.5% CPU
Optimizing NNI: done in 0.118132 secs using 199.4% CPU
Iteration 130 / LogL: -4076.331 / Time: 0h:0m:12s (0h:0m:6s left)
Optimizing NNI: done in 0.055799 secs using 199.3% CPU
Optimizing NNI: done in 0.0847862 secs using 199.2% CPU
Optimizing NNI: done in 0.0754371 secs using 199.8% CPU
Optimizing NNI: done in 0.0732999 secs using 198.6% CPU
Optimizing NNI: done in 0.0708671 secs using 199.5% CPU
Optimizing NNI: done in 0.0694108 secs using 196.8% CPU
Optimizing NNI: done in 0.067801 secs using 198.9% CPU
Optimizing NNI: done in 0.0688629 secs using 199% CPU
Optimizing NNI: done in 0.0693738 secs using 198% CPU
Optimizing NNI: done in 0.066637 secs using 199% CPU
Iteration 140 / LogL: -4076.344 / Time: 0h:0m:13s (0h:0m:5s left)
Optimizing NNI: done in 0.0816441 secs using 198.3% CPU
Optimizing NNI: done in 0.0756469 secs using 196.2% CPU
Optimizing NNI: done in 0.0890338 secs using 197.1% CPU
Optimizing NNI: done in 0.0794609 secs using 199% CPU
Optimizing NNI: done in 0.072201 secs using 199.6% CPU
Optimizing NNI: done in 0.0512309 secs using 199.1% CPU
Optimizing NNI: done in 0.110179 secs using 195.5% CPU
Optimizing NNI: done in 0.096087 secs using 199% CPU
Optimizing NNI: done in 0.055438 secs using 199.1% CPU
Optimizing NNI: done in 0.05774 secs using 199% CPU
Iteration 150 / LogL: -4076.962 / Time: 0h:0m:14s (0h:0m:4s left)
Log-likelihood cutoff on original alignment: -4102.282
Optimizing NNI: done in 0.050446 secs using 197.9% CPU
Optimizing NNI: done in 0.109374 secs using 197.2% CPU
Optimizing NNI: done in 0.0836539 secs using 196.6% CPU
Optimizing NNI: done in 0.079246 secs using 199.3% CPU
Optimizing NNI: done in 0.122253 secs using 198.1% CPU
Optimizing NNI: done in 0.0814219 secs using 199.8% CPU
Optimizing NNI: done in 0.0628889 secs using 198.4% CPU
Optimizing NNI: done in 0.0682211 secs using 197.6% CPU
Optimizing NNI: done in 0.108829 secs using 199.1% CPU
Optimizing NNI: done in 0.084362 secs using 198.4% CPU
Iteration 160 / LogL: -4080.181 / Time: 0h:0m:15s (0h:0m:3s left)
Optimizing NNI: done in 0.076076 secs using 199.6% CPU
Optimizing NNI: done in 0.096864 secs using 197.9% CPU
Optimizing NNI: done in 0.0709238 secs using 199.5% CPU
Optimizing NNI: done in 0.0779471 secs using 197.9% CPU
Optimizing NNI: done in 0.080416 secs using 199.5% CPU
Optimizing NNI: done in 0.066215 secs using 199.1% CPU
Optimizing NNI: done in 0.0976651 secs using 198.1% CPU
Optimizing NNI: done in 0.081948 secs using 199.4% CPU
Optimizing NNI: done in 0.107859 secs using 196.5% CPU
Optimizing NNI: done in 0.11501 secs using 199% CPU
Iteration 170 / LogL: -4077.777 / Time: 0h:0m:16s (0h:0m:2s left)
Optimizing NNI: done in 0.068022 secs using 198.9% CPU
Optimizing NNI: done in 0.046958 secs using 197.4% CPU
Optimizing NNI: done in 0.0942349 secs using 199.4% CPU
Optimizing NNI: done in 0.0935171 secs using 199% CPU
Optimizing NNI: done in 0.0729399 secs using 198.9% CPU
Optimizing NNI: done in 0.0658879 secs using 198.4% CPU
Optimizing NNI: done in 0.120496 secs using 198.7% CPU
Optimizing NNI: done in 0.0704041 secs using 199.8% CPU
Optimizing NNI: done in 0.0556118 secs using 196.8% CPU
Optimizing NNI: done in 0.0714991 secs using 197.7% CPU
Iteration 180 / LogL: -4078.157 / Time: 0h:0m:16s (0h:0m:1s left)
Optimizing NNI: done in 0.0787699 secs using 199.5% CPU
Optimizing NNI: done in 0.101741 secs using 198.8% CPU
Optimizing NNI: done in 0.0811481 secs using 197.9% CPU
Optimizing NNI: done in 0.0456939 secs using 199.2% CPU
Optimizing NNI: done in 0.101955 secs using 198.1% CPU
Optimizing NNI: done in 0.103211 secs using 199.1% CPU
Optimizing NNI: done in 0.0730031 secs using 198.8% CPU
Optimizing NNI: done in 0.09921 secs using 198.5% CPU
Optimizing NNI: done in 0.061801 secs using 199.7% CPU
Optimizing NNI: done in 0.086539 secs using 197.9% CPU
Iteration 190 / LogL: -4076.146 / Time: 0h:0m:17s (0h:0m:0s left)
Optimizing NNI: done in 0.094239 secs using 198.5% CPU
Optimizing NNI: done in 0.0835941 secs using 197.2% CPU
Optimizing NNI: done in 0.065222 secs using 198.7% CPU
Optimizing NNI: done in 0.078737 secs using 199.1% CPU
Optimizing NNI: done in 0.0712471 secs using 197.7% CPU
Optimizing NNI: done in 0.0597179 secs using 195.8% CPU
Optimizing NNI: done in 0.114918 secs using 199% CPU
Optimizing NNI: done in 0.070904 secs using 199% CPU
Optimizing NNI: done in 0.0996149 secs using 198.8% CPU
Optimizing NNI: done in 0.06072 secs using 199.5% CPU
Iteration 200 / LogL: -4076.432 / Time: 0h:0m:18s (0h:0m:0s left)
Log-likelihood cutoff on original alignment: -4102.731
NOTE: Bootstrap correlation coefficient of split occurrence frequencies: 0.997
TREE SEARCH COMPLETED AFTER 200 ITERATIONS / Time: 0h:0m:19s

--------------------------------------------------------------------
|                    FINALIZING TREE SEARCH                        |
--------------------------------------------------------------------
Performs final model parameters optimization
Estimate model parameters (epsilon = 0.010)
1. Initial log-likelihood: -4076.016
Optimal log-likelihood: -4076.016
Rate parameters:  A-C: 1.00000  A-G: 1.72754  A-T: 1.00000  C-G: 1.00000  C-T: 4.05932  G-T: 1.00000
Base frequencies:  A: 0.250  C: 0.250  G: 0.250  T: 0.250
Proportion of invariable sites: 0.527
Site proportion and rates:  (0.369,1.015) (0.104,6.028)
Parameters optimization took 1 rounds (0.015 sec)
BEST SCORE FOUND : -4076.016

Testing tree branches by SH-like aLRT with 1000 replicates...
0.338 sec.
Creating bootstrap support values...
Split supports printed to NEXUS file aln_ITS/ALL_ITS_full.fasaln.clipkit.splits.nex
Total tree length: 1.749

Total number of iterations: 200
CPU time used for tree search: 37.362 sec (0h:0m:37s)
Wall-clock time used for tree search: 18.906 sec (0h:0m:18s)
Total CPU time used: 38.503 sec (0h:0m:38s)
Total wall-clock time used: 19.491 sec (0h:0m:19s)

Computing bootstrap consensus tree...
Reading input file aln_ITS/ALL_ITS_full.fasaln.clipkit.splits.nex...
31 taxa and 312 splits.
Consensus tree written to aln_ITS/ALL_ITS_full.fasaln.clipkit.contree
Reading input trees file aln_ITS/ALL_ITS_full.fasaln.clipkit.contree
Log-likelihood of consensus tree: -4076.428

Analysis results written to: 
  IQ-TREE report:                aln_ITS/ALL_ITS_full.fasaln.clipkit.iqtree
  Maximum-likelihood tree:       aln_ITS/ALL_ITS_full.fasaln.clipkit.treefile
  Likelihood distances:          aln_ITS/ALL_ITS_full.fasaln.clipkit.mldist

Ultrafast bootstrap approximation results written to:
  Split support values:          aln_ITS/ALL_ITS_full.fasaln.clipkit.splits.nex
  Consensus tree:                aln_ITS/ALL_ITS_full.fasaln.clipkit.contree
  Screen log file:               aln_ITS/ALL_ITS_full.fasaln.clipkit.log

Date and Time: Mon Feb 12 14:12:00 2024
