/var/spool/slurmd/job1743938/slurm_script: line 34: aln_LSU/aln_LSU/coniochaeta_sp_jdc7.sorted_LSU_rev.fas: No such file or directory
/var/spool/slurmd/job1743938/slurm_script: line 34: aln_LSU/aln_LSU/*_LSU_rev.fas: No such file or directory
sed: can't read results/ITSx/*/ITSx.full.fasta: No such file or directory
cat: 'aln_LSU/*.fas': No such file or directory
nthread = 0
nthreadpair = 0
nthreadtb = 0
ppenalty_ex = 0
stacksize: 8192 kb
generating a scoring matrix for nucleotide (dist=200) ... done
Gap Penalty = -1.53, +0.00, +0.00



Making a distance matrix ..

There are 4 ambiguous characters.
    1 / 17
done.

Constructing a UPGMA tree (efffree=0) ... 
    0 / 17   10 / 17
done.

Progressive alignment 1/2... 
STEP     1 / 16  fSTEP     2 / 16  fSTEP     3 / 16  fSTEP     4 / 16  fSTEP     5 / 16  fSTEP     6 / 16  fSTEP     7 / 16  fSTEP     8 / 16  fSTEP     9 / 16  fSTEP    10 / 16  fSTEP    11 / 16  fSTEP    12 / 16  fSTEP    13 / 16  fSTEP    14 / 16  fSTEP    15 / 16  fSTEP    16 / 16  f
done.

Making a distance matrix from msa.. 
    0 / 17
done.

Constructing a UPGMA tree (efffree=1) ... 
    0 / 17   10 / 17
done.

Progressive alignment 2/2... 
STEP     1 / 16  fSTEP     2 / 16  fSTEP     3 / 16  fSTEP     4 / 16  fSTEP     5 / 16  fSTEP     6 / 16  fSTEP     7 / 16  fSTEP     8 / 16  fSTEP     9 / 16  fSTEP    10 / 16  fSTEP    11 / 16  fSTEP    12 / 16  fSTEP    13 / 16  fSTEP    14 / 16  fSTEP    15 / 16  fSTEP    16 / 16  f
done.

disttbfast (nuc) Version 7.505
alg=A, model=DNA200 (2), 1.53 (4.59), -0.00 (-0.00), noshift, amax=0.0
0 thread(s)


Strategy:
 FFT-NS-2 (Fast but rough)
 Progressive method (guide trees were built 2 times.)

If unsure which option to use, try 'mafft --auto input > output'.
For more information, see 'mafft --help', 'mafft --man' and the mafft page.

The default gap scoring scheme has been changed in version 7.110 (2013 Oct).
It tends to insert more gaps into gap-rich regions than previous versions.
To disable this change, add the --leavegappyregion option.


Determining smart-gap threshold...

-------------
| Arguments |
-------------
Input file: aln_LSU/ALL_LSU_full.fasaln (format: fasta)
Output file: aln_LSU/ALL_LSU_full.fasaln.clipkit (format: fasta)
Gaps threshold: 0.9412
Trimming mode: smart-gap
Create complementary output: False
Create log file: False


------------------------
| Processing Alignment |
------------------------

  0%|          | 0/1455 [00:00<?, ?it/s]100%|██████████| 1455/1455 [00:00<00:00, 38556.19it/s]


------------------------
| Writing output files |
------------------------
trimmed alignment: aln_LSU/ALL_LSU_full.fasaln.clipkit
complement file: False
log file: False


---------------------
| Output Statistics |
---------------------
Number of sites kept: 1130
Number of sites trimmed: 325

Percentage of alignment trimmed: 22.337%

Execution time: 0.255s

IQ-TREE multicore version 2.2.2.6 COVID-edition for Linux 64-bit built May 27 2023
Developed by Bui Quang Minh, James Barbetti, Nguyen Lam Tung,
Olga Chernomor, Heiko Schmidt, Dominik Schrempf, Michael Woodhams, Ly Trong Nhan.

Host:    i04 (AVX2, FMA3, 503 GB RAM)
Command: iqtree2 -nt AUTO -s aln_LSU/ALL_LSU_full.fasaln.clipkit -alrt 1000 -bb 1000 -m MFP
Seed:    137858 (Using SPRNG - Scalable Parallel Random Number Generator)
Time:    Mon Feb 12 13:29:25 2024
Kernel:  AVX+FMA - auto-detect threads (16 CPU cores detected)

Reading alignment file aln_LSU/ALL_LSU_full.fasaln.clipkit ... Fasta format detected
Reading fasta file: done in 0.000341177 secs using 61.55% CPU
Alignment most likely contains DNA/RNA sequences
Constructing alignment: done in 0.002702 secs using 608.9% CPU
Alignment has 17 sequences with 1130 columns, 203 distinct patterns
45 parsimony-informative, 216 singleton sites, 869 constant sites
             Gap/Ambiguity  Composition  p-value
Analyzing sequences: done in 0.000161171 secs
   1  NG_242134.1   22.04%    passed     95.92%
   2  NG_228849.1   27.17%    passed     96.84%
   3  NG_076709.1   27.96%    passed     96.20%
   4  NG_075158.1    3.10%    passed     93.76%
   5  NG_068555.1   18.94%    passed     81.89%
   6  NG_067348.1   21.15%    passed     98.10%
   7  NG_067344.1   21.95%    passed     97.27%
   8  NG_067257.1   49.91%    passed     98.55%
   9  NG_066204.1   22.74%    passed     91.61%
  10  NG_066151.1   49.65%    passed     99.52%
  11  NG_066150.1   49.65%    passed     97.27%
  12  NG_064287.1   29.38%    passed     95.46%
  13  NG_064120.1   21.33%    passed     96.99%
  14  NG_064080.1    2.30%    passed     30.04%
  15  NG_042720.1   46.73%    passed     88.44%
  16  NG_042382.1   46.81%    passed     98.84%
  17  NG_067452.1   21.15%    passed     38.25%
****  TOTAL         28.35%  0 sequences failed composition chi2 test (p-value<5%; df=3)
Checking for duplicate sequences: done in 0.000135183 secs using 641.4% CPU


Create initial parsimony tree by phylogenetic likelihood library (PLL)... 0.001 seconds
Measuring multi-threading efficiency up to 16 CPU cores
Increase to 10 rounds for branch lengths
3510 trees examined
Threads: 1 / Time: 16.001 sec / Speedup: 1.000 / Efficiency: 100% / LogL: -3403
Threads: 2 / Time: 25.833 sec / Speedup: 0.619 / Efficiency: 31% / LogL: -3403
Determining AUTO threadcount: done in 41.8348 secs using 164% CPU
BEST NUMBER OF THREADS: 1

Perform fast likelihood tree search using GTR+I+G model...
Estimate model parameters (epsilon = 5.000)
Perform nearest neighbor interchange...
Optimizing NNI: done in 0.00921392 secs using 199.4% CPU
Estimate model parameters (epsilon = 1.000)
1. Initial log-likelihood: -3141.368
Optimal log-likelihood: -3141.312
Rate parameters:  A-C: 1.11582  A-G: 1.87391  A-T: 0.81566  C-G: 1.28373  C-T: 5.29140  G-T: 1.00000
Base frequencies:  A: 0.254  C: 0.221  G: 0.307  T: 0.218
Proportion of invariable sites: 0.381
Gamma shape alpha: 0.510
Parameters optimization took 1 rounds (0.006 sec)
Time for fast ML tree search: 0.037 seconds

NOTE: ModelFinder requires 1 MB RAM!
ModelFinder will test up to 484 DNA models (sample size: 1130) ...
 No. Model         -LnL         df  AIC          AICc         BIC
  1  GTR+F         3204.678     39  6487.357     6490.219     6683.526
  2  GTR+F+I       3146.896     40  6373.792     6376.804     6574.991
  3  GTR+F+G4      3143.172     40  6366.343     6369.355     6567.542
  4  GTR+F+I+G4    3141.305     41  6364.611     6367.776     6570.840
  5  GTR+F+R2      3139.911     41  6361.822     6364.987     6568.051
  6  GTR+F+R3      3139.903     43  6365.805     6369.290     6582.094
 14  GTR+F+I+R2    3140.126     42  6364.251     6367.574     6575.510
 15  GTR+F+I+R3    3139.883     44  6367.766     6371.416     6589.085
 24  SYM+I         3162.526     37  6399.052     6401.628     6585.161
 25  SYM+G4        3159.105     37  6392.210     6394.785     6578.319
 26  SYM+I+G4      3157.130     38  6390.259     6392.976     6581.398
 27  SYM+R2        3155.314     38  6386.628     6389.345     6577.767
 36  SYM+I+R2      3155.621     39  6389.243     6392.105     6585.412
 46  TVM+F+I       3158.491     39  6394.982     6397.844     6591.151
 47  TVM+F+G4      3155.606     39  6389.212     6392.074     6585.381
 48  TVM+F+I+G4    3153.725     40  6387.451     6390.463     6588.650
 49  TVM+F+R2      3152.135     40  6384.270     6387.282     6585.469
 58  TVM+F+I+R2    3152.883     41  6387.766     6390.932     6593.995
 68  TVMe+I        3167.526     36  6407.051     6409.488     6588.130
 69  TVMe+G4       3164.546     36  6401.092     6403.529     6582.171
 70  TVMe+I+G4     3162.551     37  6399.102     6401.677     6585.211
 71  TVMe+R2       3160.604     37  6395.208     6397.783     6581.317
 80  TVMe+I+R2     3161.361     38  6398.722     6401.439     6589.861
 90  TIM3+F+I      3147.169     38  6370.338     6373.055     6561.477
 91  TIM3+F+G4     3143.456     38  6362.912     6365.629     6554.051
 92  TIM3+F+I+G4   3141.585     39  6361.170     6364.033     6557.339
 93  TIM3+F+R2     3140.245     39  6358.490     6361.353     6554.659
102  TIM3+F+I+R2   3140.426     40  6360.853     6363.865     6562.052
112  TIM3e+I       3163.520     35  6397.040     6399.344     6573.089
113  TIM3e+G4      3160.119     35  6390.238     6392.541     6566.287
114  TIM3e+I+G4    3158.135     36  6388.270     6390.707     6569.349
115  TIM3e+R2      3156.420     36  6384.839     6387.277     6565.918
124  TIM3e+I+R2    3156.662     37  6387.324     6389.899     6573.433
134  TIM2+F+I      3147.792     38  6371.583     6374.300     6562.722
135  TIM2+F+G4     3143.887     38  6363.775     6366.492     6554.914
136  TIM2+F+I+G4   3141.960     39  6361.919     6364.782     6558.088
137  TIM2+F+R2     3140.369     39  6358.739     6361.601     6554.908
146  TIM2+F+I+R2   3140.576     40  6361.151     6364.163     6562.350
156  TIM2e+I       3163.495     35  6396.989     6399.293     6573.038
157  TIM2e+G4      3159.922     35  6389.843     6392.147     6565.893
158  TIM2e+I+G4    3157.880     36  6387.760     6390.197     6568.839
159  TIM2e+R2      3155.858     36  6383.716     6386.153     6564.795
168  TIM2e+I+R2    3156.257     37  6386.514     6389.089     6572.623
178  TIM+F+I       3148.047     38  6372.093     6374.810     6563.232
179  TIM+F+G4      3144.157     38  6364.313     6367.030     6555.452
180  TIM+F+I+G4    3142.221     39  6362.443     6365.305     6558.611
181  TIM+F+R2      3140.655     39  6359.311     6362.173     6555.480
190  TIM+F+I+R2    3140.847     40  6361.694     6364.706     6562.893
200  TIMe+I        3164.460     35  6398.920     6401.223     6574.969
201  TIMe+G4       3160.912     35  6391.824     6394.128     6567.873
202  TIMe+I+G4     3158.869     36  6389.739     6392.176     6570.818
203  TIMe+R2       3156.930     36  6385.860     6388.298     6566.939
212  TIMe+I+R2     3157.191     37  6388.381     6390.956     6574.490
222  TPM3u+F+I     3158.713     37  6391.426     6394.001     6577.535
223  TPM3u+F+G4    3155.812     37  6385.623     6388.198     6571.732
224  TPM3u+F+I+G4  3153.899     38  6383.798     6386.515     6574.937
225  TPM3u+F+R2    3152.341     38  6380.682     6383.399     6571.821
234  TPM3u+F+I+R2  3152.960     39  6383.921     6386.783     6580.090
244  TPM3+I        3168.532     34  6405.064     6407.237     6576.083
245  TPM3+G4       3165.558     34  6399.116     6401.289     6570.135
246  TPM3+I+G4     3163.516     35  6397.033     6399.336     6573.082
247  TPM3+R2       3161.657     35  6393.313     6395.617     6569.363
256  TPM3+I+R2     3162.218     36  6396.435     6398.873     6577.514
266  TPM2u+F+I     3159.476     37  6392.952     6395.527     6579.061
267  TPM2u+F+G4    3156.510     37  6387.019     6389.594     6573.128
268  TPM2u+F+I+G4  3154.574     38  6385.147     6387.864     6576.286
269  TPM2u+F+R2    3152.807     38  6381.615     6384.332     6572.754
278  TPM2u+F+I+R2  3153.505     39  6385.009     6387.871     6581.178
288  TPM2+I        3168.554     34  6405.108     6407.282     6576.127
289  TPM2+G4       3165.491     34  6398.983     6401.156     6570.002
290  TPM2+I+G4     3163.437     35  6396.873     6399.177     6572.922
291  TPM2+R2       3161.292     35  6392.584     6394.887     6568.633
300  TPM2+I+R2     3162.000     36  6395.999     6398.437     6577.078
310  K3Pu+F+I      3159.684     37  6393.368     6395.943     6579.477
311  K3Pu+F+G4     3156.703     37  6387.407     6389.982     6573.516
312  K3Pu+F+I+G4   3154.739     38  6385.477     6388.194     6576.616
313  K3Pu+F+R2     3152.991     38  6381.982     6384.698     6573.120
322  K3Pu+F+I+R2   3153.660     39  6385.320     6388.182     6581.489
332  K3P+I         3169.538     34  6407.075     6409.249     6578.094
333  K3P+G4        3166.482     34  6400.965     6403.138     6571.984
334  K3P+I+G4      3164.390     35  6398.781     6401.084     6574.830
335  K3P+R2        3162.270     35  6394.540     6396.843     6570.589
344  K3P+I+R2      3162.929     36  6397.858     6400.295     6578.937
354  TN+F+I        3148.047     37  6370.093     6372.668     6556.202
355  TN+F+G4       3144.162     37  6362.325     6364.900     6548.434
356  TN+F+I+G4     3142.224     38  6360.447     6363.164     6551.586
357  TN+F+R2       3140.670     38  6357.340     6360.057     6548.479
366  TN+F+I+R2     3140.852     39  6359.704     6362.566     6555.873
376  TNe+I         3164.462     34  6396.924     6399.098     6567.944
377  TNe+G4        3160.921     34  6389.842     6392.016     6560.861
378  TNe+I+G4      3158.873     35  6387.746     6390.050     6563.795
379  TNe+R2        3156.938     35  6383.876     6386.179     6559.925
388  TNe+I+R2      3157.193     36  6386.385     6388.822     6567.464
398  HKY+F+I       3159.684     36  6391.367     6393.805     6572.447
399  HKY+F+G4      3156.702     36  6385.404     6387.841     6566.483
400  HKY+F+I+G4    3154.739     37  6383.477     6386.052     6569.586
401  HKY+F+R2      3152.993     37  6379.987     6382.562     6566.096
410  HKY+F+I+R2    3153.658     38  6383.316     6386.033     6574.455
420  K2P+I         3169.537     33  6405.075     6407.122     6571.064
421  K2P+G4        3166.484     33  6398.967     6401.014     6564.956
422  K2P+I+G4      3164.390     34  6396.780     6398.953     6567.799
423  K2P+R2        3162.274     34  6392.548     6394.721     6563.567
432  K2P+I+R2      3162.930     35  6395.860     6398.163     6571.909
442  F81+F+I       3193.624     35  6457.248     6459.552     6633.297
443  F81+F+G4      3190.810     35  6451.621     6453.924     6627.670
444  F81+F+I+G4    3188.811     36  6449.623     6452.060     6630.702
445  F81+F+R2      3187.273     36  6446.547     6448.984     6627.626
454  F81+F+I+R2    3187.805     37  6449.611     6452.186     6635.720
464  JC+I          3203.387     32  6470.774     6472.700     6631.734
465  JC+G4         3200.526     32  6465.052     6466.977     6626.011
466  JC+I+G4       3198.233     33  6462.467     6464.514     6628.456
467  JC+R2         3196.274     33  6458.548     6460.596     6624.538
476  JC+I+R2       3196.730     34  6461.461     6463.634     6632.480
Akaike Information Criterion:           TN+F+R2
Corrected Akaike Information Criterion: TN+F+R2
Bayesian Information Criterion:         TN+F+G4
Best-fit model: TN+F+G4 chosen according to BIC

All model information printed to aln_LSU/ALL_LSU_full.fasaln.clipkit.model.gz
CPU time for ModelFinder: 72.541 seconds (0h:1m:12s)
Wall-clock time for ModelFinder: 45.507 seconds (0h:0m:45s)
Generating 1000 samples for ultrafast bootstrap (seed: 137858)...

NOTE: 1 MB RAM (0 GB) is required!
Estimate model parameters (epsilon = 0.100)
1. Initial log-likelihood: -3144.162
Optimal log-likelihood: -3144.161
Rate parameters:  A-C: 1.00000  A-G: 1.77497  A-T: 1.00000  C-G: 1.00000  C-T: 4.89697  G-T: 1.00000
Base frequencies:  A: 0.254  C: 0.221  G: 0.307  T: 0.218
Gamma shape alpha: 0.211
Parameters optimization took 1 rounds (0.002 sec)
Wrote distance file to... 
Computing ML distances based on estimated model parameters...
Calculating distance matrix: done in 0.00159001 secs using 98.93% CPU
Computing ML distances took 0.001662 sec (of wall-clock time) 0.001646 sec (of CPU time)
Setting up auxiliary I and S matrices: done in 0.000123978 secs using 100% CPU
Constructing RapidNJ tree: done in 7.60555e-05 secs using 193.3% CPU
Computing RapidNJ tree took 0.000368 sec (of wall-clock time) 0.000742 sec (of CPU time)
Log-likelihood of RapidNJ tree: -3171.187
--------------------------------------------------------------------
|             INITIALIZING CANDIDATE TREE SET                      |
--------------------------------------------------------------------
Generating 98 parsimony trees... 0.083 second
Computing log-likelihood of 98 initial trees ... 0.091 seconds
Current best score: -3144.161

Do NNI search on 20 best initial trees
Optimizing NNI: done in 0.00477123 secs using 178.4% CPU
Estimate model parameters (epsilon = 0.100)
BETTER TREE FOUND at iteration 1: -3144.161
Optimizing NNI: done in 0.015239 secs using 119.1% CPU
Optimizing NNI: done in 0.0140111 secs using 99.66% CPU
Optimizing NNI: done in 0.0200338 secs using 99.6% CPU
Optimizing NNI: done in 0.016866 secs using 99.61% CPU
Optimizing NNI: done in 0.016938 secs using 99.64% CPU
Optimizing NNI: done in 0.015676 secs using 99.67% CPU
Optimizing NNI: done in 0.0130899 secs using 99.6% CPU
Optimizing NNI: done in 0.017134 secs using 99.59% CPU
Optimizing NNI: done in 0.0179498 secs using 99.66% CPU
Iteration 10 / LogL: -3144.164 / Time: 0h:0m:0s
Optimizing NNI: done in 0.016572 secs using 99.68% CPU
Optimizing NNI: done in 0.0148799 secs using 99.6% CPU
Optimizing NNI: done in 0.0187001 secs using 99.64% CPU
Optimizing NNI: done in 0.0195949 secs using 99.65% CPU
Estimate model parameters (epsilon = 0.100)
BETTER TREE FOUND at iteration 14: -3142.970
Optimizing NNI: done in 0.0196471 secs using 99.63% CPU
Optimizing NNI: done in 0.0179539 secs using 99.65% CPU
Optimizing NNI: done in 0.0147388 secs using 99.63% CPU
Optimizing NNI: done in 0.014081 secs using 99.61% CPU
Optimizing NNI: done in 0.0152321 secs using 99.67% CPU
Optimizing NNI: done in 0.023428 secs using 99.65% CPU
Iteration 20 / LogL: -3144.270 / Time: 0h:0m:0s
Finish initializing candidate tree set (4)
Current best tree score: -3142.970 / CPU time: 0.521
Number of iterations: 20
--------------------------------------------------------------------
|               OPTIMIZING CANDIDATE TREE SET                      |
--------------------------------------------------------------------
Optimizing NNI: done in 0.0147569 secs using 99.65% CPU
Optimizing NNI: done in 0.014142 secs using 99.63% CPU
Optimizing NNI: done in 0.0327029 secs using 99.67% CPU
Optimizing NNI: done in 0.0170639 secs using 99.64% CPU
Optimizing NNI: done in 0.0154901 secs using 99.65% CPU
Optimizing NNI: done in 0.009444 secs using 99.56% CPU
Optimizing NNI: done in 0.017221 secs using 99.63% CPU
Optimizing NNI: done in 0.016263 secs using 99.54% CPU
Optimizing NNI: done in 0.0130799 secs using 99.66% CPU
Optimizing NNI: done in 0.0150971 secs using 99.68% CPU
Iteration 30 / LogL: -3144.668 / Time: 0h:0m:0s (0h:0m:2s left)
Optimizing NNI: done in 0.016618 secs using 99.61% CPU
Optimizing NNI: done in 0.012851 secs using 99.68% CPU
Optimizing NNI: done in 0.018085 secs using 99.7% CPU
Optimizing NNI: done in 0.015779 secs using 99.7% CPU
Optimizing NNI: done in 0.0142791 secs using 99.68% CPU
Optimizing NNI: done in 0.028301 secs using 99.69% CPU
Optimizing NNI: done in 0.0184128 secs using 99.68% CPU
Optimizing NNI: done in 0.0135441 secs using 99.69% CPU
Optimizing NNI: done in 0.0108931 secs using 99.66% CPU
Optimizing NNI: done in 0.0177948 secs using 99.65% CPU
Iteration 40 / LogL: -3144.608 / Time: 0h:0m:0s (0h:0m:1s left)
Optimizing NNI: done in 0.0190148 secs using 94.42% CPU
Optimizing NNI: done in 0.012558 secs using 99.66% CPU
Optimizing NNI: done in 0.0228162 secs using 99.67% CPU
Optimizing NNI: done in 0.016248 secs using 99.6% CPU
Optimizing NNI: done in 0.020956 secs using 99.69% CPU
Optimizing NNI: done in 0.019598 secs using 99.66% CPU
Optimizing NNI: done in 0.017467 secs using 99.64% CPU
Optimizing NNI: done in 0.0164781 secs using 99.7% CPU
Optimizing NNI: done in 0.016408 secs using 99.64% CPU
Optimizing NNI: done in 0.0100861 secs using 99.64% CPU
Iteration 50 / LogL: -3144.276 / Time: 0h:0m:1s (0h:0m:1s left)
Log-likelihood cutoff on original alignment: -3173.374
Optimizing NNI: done in 0.0109129 secs using 99.68% CPU
Optimizing NNI: done in 0.01911 secs using 99.69% CPU
Optimizing NNI: done in 0.029376 secs using 99.67% CPU
Optimizing NNI: done in 0.0190771 secs using 99.54% CPU
Optimizing NNI: done in 0.0174561 secs using 99.63% CPU
Optimizing NNI: done in 0.0263171 secs using 99.67% CPU
Optimizing NNI: done in 0.014971 secs using 93.02% CPU
Optimizing NNI: done in 0.0208061 secs using 99.56% CPU
Optimizing NNI: done in 0.019598 secs using 99.67% CPU
Optimizing NNI: done in 0.016041 secs using 99.63% CPU
Iteration 60 / LogL: -3143.721 / Time: 0h:0m:1s (0h:0m:1s left)
Optimizing NNI: done in 0.0188248 secs using 99.62% CPU
Optimizing NNI: done in 0.0120389 secs using 99.69% CPU
Optimizing NNI: done in 0.012646 secs using 99.65% CPU
Optimizing NNI: done in 0.0193641 secs using 99.62% CPU
Optimizing NNI: done in 0.015542 secs using 99.7% CPU
Optimizing NNI: done in 0.018589 secs using 99.66% CPU
Optimizing NNI: done in 0.0139999 secs using 99.64% CPU
Optimizing NNI: done in 0.0232689 secs using 99.66% CPU
Optimizing NNI: done in 0.0266371 secs using 99.68% CPU
Optimizing NNI: done in 0.0179741 secs using 99.63% CPU
Iteration 70 / LogL: -3142.973 / Time: 0h:0m:1s (0h:0m:1s left)
Optimizing NNI: done in 0.0186172 secs using 99.64% CPU
Optimizing NNI: done in 0.016675 secs using 99.64% CPU
Optimizing NNI: done in 0.0113728 secs using 99.64% CPU
Optimizing NNI: done in 0.015352 secs using 99.68% CPU
Optimizing NNI: done in 0.016448 secs using 99.68% CPU
Optimizing NNI: done in 0.0151579 secs using 99.65% CPU
Optimizing NNI: done in 0.0152242 secs using 99.62% CPU
Optimizing NNI: done in 0.013514 secs using 99.62% CPU
Optimizing NNI: done in 0.010736 secs using 99.67% CPU
Optimizing NNI: done in 0.0223451 secs using 99.69% CPU
Iteration 80 / LogL: -3144.830 / Time: 0h:0m:1s (0h:0m:0s left)
Optimizing NNI: done in 0.013015 secs using 99.63% CPU
Optimizing NNI: done in 0.01597 secs using 99.53% CPU
Optimizing NNI: done in 0.0124731 secs using 99.7% CPU
Optimizing NNI: done in 0.0163398 secs using 99.67% CPU
Optimizing NNI: done in 0.0154202 secs using 99.54% CPU
Optimizing NNI: done in 0.0156291 secs using 99.58% CPU
Optimizing NNI: done in 0.0181539 secs using 99.63% CPU
Optimizing NNI: done in 0.014503 secs using 99.61% CPU
Optimizing NNI: done in 0.0201042 secs using 99.66% CPU
Optimizing NNI: done in 0.0157399 secs using 99.66% CPU
Iteration 90 / LogL: -3144.701 / Time: 0h:0m:2s (0h:0m:0s left)
Optimizing NNI: done in 0.0153079 secs using 99.65% CPU
Optimizing NNI: done in 0.0198221 secs using 99.67% CPU
Optimizing NNI: done in 0.0167851 secs using 99.68% CPU
Optimizing NNI: done in 0.0166888 secs using 99.68% CPU
Optimizing NNI: done in 0.0120518 secs using 99.65% CPU
Optimizing NNI: done in 0.0158579 secs using 99.68% CPU
Optimizing NNI: done in 0.0158172 secs using 99.66% CPU
Optimizing NNI: done in 0.0160871 secs using 99.68% CPU
Optimizing NNI: done in 0.0156641 secs using 99.65% CPU
Optimizing NNI: done in 0.0109298 secs using 99.67% CPU
Iteration 100 / LogL: -3145.679 / Time: 0h:0m:2s (0h:0m:0s left)
Log-likelihood cutoff on original alignment: -3172.858
NOTE: Bootstrap correlation coefficient of split occurrence frequencies: 0.998
Optimizing NNI: done in 0.0168822 secs using 99.55% CPU
Optimizing NNI: done in 0.015162 secs using 99.62% CPU
Optimizing NNI: done in 0.0186341 secs using 99.67% CPU
Optimizing NNI: done in 0.016634 secs using 99.64% CPU
Optimizing NNI: done in 0.0106561 secs using 99.7% CPU
Optimizing NNI: done in 0.0202029 secs using 99.67% CPU
Optimizing NNI: done in 0.0120931 secs using 99.69% CPU
Optimizing NNI: done in 0.0195141 secs using 99.64% CPU
Optimizing NNI: done in 0.0198569 secs using 99.69% CPU
Optimizing NNI: done in 0.016449 secs using 99.67% CPU
Iteration 110 / LogL: -3144.612 / Time: 0h:0m:2s (0h:0m:2s left)
Optimizing NNI: done in 0.0110791 secs using 99.66% CPU
Optimizing NNI: done in 0.0111592 secs using 99.65% CPU
Optimizing NNI: done in 0.029948 secs using 99.67% CPU
Optimizing NNI: done in 0.017231 secs using 99.67% CPU
Optimizing NNI: done in 0.0124981 secs using 99.66% CPU
TREE SEARCH COMPLETED AFTER 115 ITERATIONS / Time: 0h:0m:2s

--------------------------------------------------------------------
|                    FINALIZING TREE SEARCH                        |
--------------------------------------------------------------------
Performs final model parameters optimization
Estimate model parameters (epsilon = 0.010)
1. Initial log-likelihood: -3142.970
Optimal log-likelihood: -3142.969
Rate parameters:  A-C: 1.00000  A-G: 1.70276  A-T: 1.00000  C-G: 1.00000  C-T: 5.17429  G-T: 1.00000
Base frequencies:  A: 0.254  C: 0.221  G: 0.307  T: 0.218
Gamma shape alpha: 0.204
Parameters optimization took 1 rounds (0.003 sec)
BEST SCORE FOUND : -3142.969

Testing tree branches by SH-like aLRT with 1000 replicates...
0.201 sec.
Creating bootstrap support values...
Split supports printed to NEXUS file aln_LSU/ALL_LSU_full.fasaln.clipkit.splits.nex
Total tree length: 0.560

Total number of iterations: 115
CPU time used for tree search: 2.745 sec (0h:0m:2s)
Wall-clock time used for tree search: 2.603 sec (0h:0m:2s)
Total CPU time used: 3.037 sec (0h:0m:3s)
Total wall-clock time used: 2.912 sec (0h:0m:2s)

Computing bootstrap consensus tree...
Reading input file aln_LSU/ALL_LSU_full.fasaln.clipkit.splits.nex...
17 taxa and 194 splits.
Consensus tree written to aln_LSU/ALL_LSU_full.fasaln.clipkit.contree
Reading input trees file aln_LSU/ALL_LSU_full.fasaln.clipkit.contree
Log-likelihood of consensus tree: -3144.744

Analysis results written to: 
  IQ-TREE report:                aln_LSU/ALL_LSU_full.fasaln.clipkit.iqtree
  Maximum-likelihood tree:       aln_LSU/ALL_LSU_full.fasaln.clipkit.treefile
  Likelihood distances:          aln_LSU/ALL_LSU_full.fasaln.clipkit.mldist

Ultrafast bootstrap approximation results written to:
  Split support values:          aln_LSU/ALL_LSU_full.fasaln.clipkit.splits.nex
  Consensus tree:                aln_LSU/ALL_LSU_full.fasaln.clipkit.contree
  Screen log file:               aln_LSU/ALL_LSU_full.fasaln.clipkit.log

Date and Time: Mon Feb 12 13:30:13 2024
nthread = 0
nthreadpair = 0
nthreadtb = 0
ppenalty_ex = 0
stacksize: 8192 kb
generating a scoring matrix for nucleotide (dist=200) ... done
Gap Penalty = -1.53, +0.00, +0.00



Making a distance matrix ..

There are 1 ambiguous characters.
    1 / 31
done.

Constructing a UPGMA tree (efffree=0) ... 
    0 / 31   10 / 31   20 / 31
done.

Progressive alignment 1/2... 
STEP     1 / 30  fSTEP     2 / 30  fSTEP     3 / 30  fSTEP     4 / 30  fSTEP     5 / 30  fSTEP     6 / 30  fSTEP     7 / 30  fSTEP     8 / 30  fSTEP     9 / 30  fSTEP    10 / 30  fSTEP    11 / 30  fSTEP    12 / 30  fSTEP    13 / 30  fSTEP    14 / 30  fSTEP    15 / 30  fSTEP    16 / 30  fSTEP    17 / 30  fSTEP    18 / 30  fSTEP    19 / 30  fSTEP    20 / 30  fSTEP    21 / 30  fSTEP    22 / 30  fSTEP    23 / 30  fSTEP    24 / 30  fSTEP    25 / 30  fSTEP    26 / 30  fSTEP    27 / 30  f
Reallocating..done. *alloclen = 2410
STEP    28 / 30  fSTEP    29 / 30  fSTEP    30 / 30  f
done.

Making a distance matrix from msa.. 
    0 / 31
done.

Constructing a UPGMA tree (efffree=1) ... 
    0 / 31   10 / 31   20 / 31
done.

Progressive alignment 2/2... 
STEP     1 / 30  fSTEP     2 / 30  fSTEP     3 / 30  fSTEP     4 / 30  fSTEP     5 / 30  fSTEP     6 / 30  fSTEP     7 / 30  fSTEP     8 / 30  fSTEP     9 / 30  fSTEP    10 / 30  fSTEP    11 / 30  fSTEP    12 / 30  fSTEP    13 / 30  fSTEP    14 / 30  fSTEP    15 / 30  fSTEP    16 / 30  fSTEP    17 / 30  fSTEP    18 / 30  fSTEP    19 / 30  fSTEP    20 / 30  fSTEP    21 / 30  fSTEP    22 / 30  fSTEP    23 / 30  fSTEP    24 / 30  fSTEP    25 / 30  fSTEP    26 / 30  fSTEP    27 / 30  f
Reallocating..done. *alloclen = 2408
STEP    28 / 30  fSTEP    29 / 30  fSTEP    30 / 30  f
done.

disttbfast (nuc) Version 7.505
alg=A, model=DNA200 (2), 1.53 (4.59), -0.00 (-0.00), noshift, amax=0.0
0 thread(s)


Strategy:
 FFT-NS-2 (Fast but rough)
 Progressive method (guide trees were built 2 times.)

If unsure which option to use, try 'mafft --auto input > output'.
For more information, see 'mafft --help', 'mafft --man' and the mafft page.

The default gap scoring scheme has been changed in version 7.110 (2013 Oct).
It tends to insert more gaps into gap-rich regions than previous versions.
To disable this change, add the --leavegappyregion option.


Determining smart-gap threshold...

-------------
| Arguments |
-------------
Input file: aln_ITS/ALL_ITS_full.fasaln (format: fasta)
Output file: aln_ITS/ALL_ITS_full.fasaln.clipkit (format: fasta)
Gaps threshold: 0.871
Trimming mode: smart-gap
Create complementary output: False
Create log file: False


------------------------
| Processing Alignment |
------------------------

  0%|          | 0/786 [00:00<?, ?it/s]100%|██████████| 786/786 [00:00<00:00, 24483.83it/s]


------------------------
| Writing output files |
------------------------
trimmed alignment: aln_ITS/ALL_ITS_full.fasaln.clipkit
complement file: False
log file: False


---------------------
| Output Statistics |
---------------------
Number of sites kept: 671
Number of sites trimmed: 115

Percentage of alignment trimmed: 14.631%

Execution time: 0.082s

IQ-TREE multicore version 2.2.2.6 COVID-edition for Linux 64-bit built May 27 2023
Developed by Bui Quang Minh, James Barbetti, Nguyen Lam Tung,
Olga Chernomor, Heiko Schmidt, Dominik Schrempf, Michael Woodhams, Ly Trong Nhan.

Host:    i04 (AVX2, FMA3, 503 GB RAM)
Command: iqtree2 -nt AUTO -s aln_ITS/ALL_ITS_full.fasaln.clipkit -alrt 1000 -bb 1000 -m MFP
Seed:    581961 (Using SPRNG - Scalable Parallel Random Number Generator)
Time:    Mon Feb 12 13:30:14 2024
Kernel:  AVX+FMA - auto-detect threads (16 CPU cores detected)

Reading alignment file aln_ITS/ALL_ITS_full.fasaln.clipkit ... Fasta format detected
Reading fasta file: done in 0.000384092 secs using 33.06% CPU
Alignment most likely contains DNA/RNA sequences
Constructing alignment: done in 0.00182915 secs using 631.6% CPU
Alignment has 31 sequences with 671 columns, 304 distinct patterns
163 parsimony-informative, 81 singleton sites, 427 constant sites
             Gap/Ambiguity  Composition  p-value
Analyzing sequences: done in 5.31673e-05 secs using 750.5% CPU
   1  coniochaeta   26.97%    passed     67.22%
   2  NR_189971.1   16.84%    passed     96.30%
   3  NR_185589.1   11.62%    passed     95.12%
   4  NR_177572.1   35.17%    passed     90.32%
   5  NR_177571.1   35.17%    passed     96.06%
   6  NR_175055.1   10.13%    passed     71.18%
   7  NR_173009.1   18.18%    passed     77.40%
   8  NR_172554.1   19.08%    passed     80.67%
   9  NR_168225.1   26.08%    passed     98.14%
  10  NR_167688.1    1.49%    passed     60.66%
  11  NR_164024.1   22.06%    passed     98.58%
  12  NR_159779.1   26.23%    passed     90.31%
  13  NR_159776.1   28.17%    passed     83.98%
  14  NR_159774.1   23.99%    passed     51.91%
  15  NR_159772.1   24.89%    passed     66.43%
  16  NR_121521.1    2.68%    passed     31.41%
  17  NR_121473.1    9.39%    passed     86.95%
  18  NR_120211.1   13.71%    passed     92.38%
  19  NR_111520.1   27.12%    passed     97.09%
  20  NR_111519.1   26.97%    passed     95.39%
  21  NR_111517.1   26.53%    passed     73.43%
  22  NR_154808.1    3.28%    passed     83.92%
  23  NR_157509.1   15.05%    passed     93.95%
  24  NR_157508.1   14.61%    passed     99.64%
  25  NR_157478.1   11.62%    passed     85.19%
  26  NR_154770.1   26.97%    passed     72.42%
  27  NR_154769.1   26.97%    passed     94.26%
  28  NR_144912.1   28.32%    passed     86.25%
  29  NR_137725.1   19.82%    passed     99.31%
  30  NR_137037.1   19.97%    passed     94.38%
  31  NR_171740.1   22.50%    passed     81.44%
****  TOTAL         20.05%  0 sequences failed composition chi2 test (p-value<5%; df=3)
Checking for duplicate sequences: done in 0.000246048 secs using 753.9% CPU


Create initial parsimony tree by phylogenetic likelihood library (PLL)... 0.002 seconds
Measuring multi-threading efficiency up to 16 CPU cores
Increase to 10 rounds for branch lengths
926 trees examined
Threads: 1 / Time: 16.016 sec / Speedup: 1.000 / Efficiency: 100% / LogL: -5240
Threads: 2 / Time: 13.709 sec / Speedup: 1.168 / Efficiency: 58% / LogL: -5240
Threads: 3 / Time: 12.743 sec / Speedup: 1.257 / Efficiency: 42% / LogL: -5240
Determining AUTO threadcount: done in 42.4733 secs using 193.5% CPU
BEST NUMBER OF THREADS: 2

Perform fast likelihood tree search using GTR+I+G model...
Estimate model parameters (epsilon = 5.000)
Perform nearest neighbor interchange...
Optimizing NNI: done in 0.020303 secs using 279.3% CPU
Estimate model parameters (epsilon = 1.000)
1. Initial log-likelihood: -4086.666
Optimal log-likelihood: -4086.576
Rate parameters:  A-C: 1.39860  A-G: 1.82912  A-T: 1.03388  C-G: 1.13406  C-T: 4.70725  G-T: 1.00000
Base frequencies:  A: 0.243  C: 0.264  G: 0.268  T: 0.224
Proportion of invariable sites: 0.328
Gamma shape alpha: 0.486
Parameters optimization took 1 rounds (0.008 sec)
Time for fast ML tree search: 0.077 seconds

NOTE: ModelFinder requires 4 MB RAM!
ModelFinder will test up to 484 DNA models (sample size: 671) ...
 No. Model         -LnL         df  AIC          AICc         BIC
  1  GTR+F         4418.126     67  8970.253     8985.364     9272.340
  2  GTR+F+I       4151.376     68  8438.753     8454.341     8745.349
  3  GTR+F+G4      4095.489     68  8326.978     8342.566     8633.574
  4  GTR+F+I+G4    4086.483     69  8310.965     8327.039     8622.070
  5  GTR+F+R2      4105.376     69  8348.752     8364.825     8659.857
  6  GTR+F+R3      4101.262     71  8344.525     8361.593     8664.648
 14  GTR+F+I+R2    4083.642     70  8307.285     8323.851     8622.899
 15  GTR+F+I+R3    4081.260     72  8306.521     8324.099     8631.152
 26  SYM+I+G4      4089.586     66  8311.172     8325.815     8608.751
 36  SYM+I+R2      4086.620     67  8307.241     8322.352     8609.328
 37  SYM+I+R3      4084.391     69  8306.783     8322.856     8617.888
 48  TVM+F+I+G4    4105.462     68  8346.924     8362.512     8653.520
 58  TVM+F+I+R2    4099.507     69  8337.014     8353.087     8648.119
 59  TVM+F+I+R3    4098.150     71  8338.300     8355.368     8658.422
 70  TVMe+I+G4     4105.235     65  8340.469     8354.651     8633.539
 80  TVMe+I+R2     4099.778     66  8331.556     8346.198     8629.135
 81  TVMe+I+R3     4098.486     68  8332.971     8348.559     8639.568
 92  TIM3+F+I+G4   4086.965     67  8307.931     8323.042     8610.018
102  TIM3+F+I+R2   4084.302     68  8304.604     8320.193     8611.201
103  TIM3+F+I+R3   4082.119     70  8304.239     8320.805     8619.852
114  TIM3e+I+G4    4089.763     64  8307.525     8321.255     8596.087
124  TIM3e+I+R2    4086.870     65  8303.739     8317.921     8596.809
125  TIM3e+I+R3    4084.722     67  8303.445     8318.556     8605.532
136  TIM2+F+I+G4   4087.395     67  8308.790     8323.901     8610.877
146  TIM2+F+I+R2   4084.871     68  8305.742     8321.330     8612.339
147  TIM2+F+I+R3   4082.518     70  8305.036     8321.602     8620.650
158  TIM2e+I+G4    4092.457     64  8312.914     8326.643     8601.475
168  TIM2e+I+R2    4089.758     65  8309.515     8323.697     8602.585
169  TIM2e+I+R3    4087.570     67  8309.140     8324.251     8611.227
180  TIM+F+I+G4    4087.584     67  8309.168     8324.279     8611.256
190  TIM+F+I+R2    4085.042     68  8306.085     8321.673     8612.681
191  TIM+F+I+R3    4082.851     70  8305.703     8322.270     8621.317
202  TIMe+I+G4     4092.361     64  8312.723     8326.452     8601.284
212  TIMe+I+R2     4089.634     65  8309.267     8323.449     8602.337
213  TIMe+I+R3     4087.507     67  8309.013     8324.124     8611.101
224  TPM3u+F+I+G4  4106.136     66  8344.271     8358.913     8641.850
234  TPM3u+F+I+R2  4100.390     67  8334.780     8349.892     8636.868
235  TPM3u+F+I+R3  4099.124     69  8336.247     8352.320     8647.352
246  TPM3+I+G4     4105.403     63  8336.806     8350.091     8620.859
256  TPM3+I+R2     4100.111     64  8328.222     8341.951     8616.783
257  TPM3+I+R3     4098.855     66  8329.710     8344.353     8627.289
268  TPM2u+F+I+G4  4106.786     66  8345.572     8360.214     8643.151
278  TPM2u+F+I+R2  4100.877     67  8335.753     8350.865     8637.841
279  TPM2u+F+I+R3  4099.508     69  8337.017     8353.090     8648.122
290  TPM2+I+G4     4108.177     63  8342.354     8355.639     8626.406
300  TPM2+I+R2     4102.736     64  8333.471     8347.200     8622.032
301  TPM2+I+R3     4101.533     66  8335.067     8349.709     8632.646
312  K3Pu+F+I+G4   4106.935     66  8345.870     8360.512     8643.448
322  K3Pu+F+I+R2   4101.116     67  8336.232     8351.343     8638.320
323  K3Pu+F+I+R3   4099.830     69  8337.659     8353.733     8648.764
334  K3P+I+G4      4108.028     63  8342.056     8355.341     8626.108
344  K3P+I+R2      4102.574     64  8333.148     8346.877     8621.709
345  K3P+I+R3      4101.405     66  8334.810     8349.453     8632.389
356  TN+F+I+G4     4087.838     66  8307.676     8322.318     8605.255
366  TN+F+I+R2     4085.308     67  8304.616     8319.727     8606.703
367  TN+F+I+R3     4083.156     69  8304.311     8320.385     8615.416
378  TNe+I+G4      4092.552     63  8311.104     8324.389     8595.157
388  TNe+I+R2      4089.822     64  8307.645     8321.374     8596.206
389  TNe+I+R3      4087.721     66  8307.443     8322.085     8605.022
400  HKY+F+I+G4    4107.165     65  8344.331     8358.512     8637.401
410  HKY+F+I+R2    4101.477     66  8334.954     8349.596     8632.533
411  HKY+F+I+R3    4100.206     68  8336.413     8352.001     8643.009
422  K2P+I+G4      4108.169     62  8340.337     8353.186     8619.881
432  K2P+I+R2      4102.833     63  8331.666     8344.951     8615.718
433  K2P+I+R3      4101.673     65  8333.346     8347.528     8626.416
444  F81+F+I+G4    4166.678     64  8461.355     8475.085     8749.917
454  F81+F+I+R2    4161.643     65  8453.287     8467.469     8746.357
455  F81+F+I+R3    4160.574     67  8455.148     8470.260     8757.236
466  JC+I+G4       4165.753     61  8453.505     8465.925     8728.540
476  JC+I+R2       4160.972     62  8445.944     8458.793     8725.488
477  JC+I+R3       4159.940     64  8447.880     8461.610     8736.442
Akaike Information Criterion:           TIM3e+I+R3
Corrected Akaike Information Criterion: TIM3e+I+R2
Bayesian Information Criterion:         TNe+I+G4
Best-fit model: TNe+I+G4 chosen according to BIC

All model information printed to aln_ITS/ALL_ITS_full.fasaln.clipkit.model.gz
CPU time for ModelFinder: 91.096 seconds (0h:1m:31s)
Wall-clock time for ModelFinder: 46.868 seconds (0h:0m:46s)
Generating 1000 samples for ultrafast bootstrap (seed: 581961)...

NOTE: 2 MB RAM (0 GB) is required!
Estimate model parameters (epsilon = 0.100)
Thoroughly optimizing +I+G parameters from 10 start values...
Init pinv, alpha: 0.000, 0.528 / Estimate: 0.000, 0.261 / LogL: -4101.590
Init pinv, alpha: 0.071, 0.528 / Estimate: 0.286, 0.440 / LogL: -4093.506
Init pinv, alpha: 0.141, 0.528 / Estimate: 0.288, 0.442 / LogL: -4093.457
Init pinv, alpha: 0.212, 0.528 / Estimate: 0.287, 0.441 / LogL: -4093.476
Init pinv, alpha: 0.283, 0.528 / Estimate: 0.300, 0.455 / LogL: -4093.261
Init pinv, alpha: 0.354, 0.528 / Estimate: 0.356, 0.534 / LogL: -4092.519
Init pinv, alpha: 0.424, 0.528 / Estimate: 0.417, 0.655 / LogL: -4092.358
Init pinv, alpha: 0.495, 0.528 / Estimate: 0.449, 0.749 / LogL: -4092.680
Init pinv, alpha: 0.566, 0.528 / Estimate: 0.447, 0.741 / LogL: -4092.643
Init pinv, alpha: 0.636, 0.528 / Estimate: 0.448, 0.744 / LogL: -4092.656
Optimal pinv,alpha: 0.417, 0.655 / LogL: -4092.358

Parameters optimization took 0.568 sec
Wrote distance file to... 
Computing ML distances based on estimated model parameters...
Calculating distance matrix: done in 0.00191402 secs using 228.1% CPU
Computing ML distances took 0.002001 sec (of wall-clock time) 0.004455 sec (of CPU time)
Setting up auxiliary I and S matrices: done in 8.60691e-05 secs using 282.3% CPU
Constructing RapidNJ tree: done in 0.000401974 secs using 159.7% CPU
Computing RapidNJ tree took 0.000574 sec (of wall-clock time) 0.000926 sec (of CPU time)
Log-likelihood of RapidNJ tree: -4112.131
--------------------------------------------------------------------
|             INITIALIZING CANDIDATE TREE SET                      |
--------------------------------------------------------------------
Generating 98 parsimony trees... 0.191 second
Computing log-likelihood of 98 initial trees ... 0.191 seconds
Current best score: -4087.860

Do NNI search on 20 best initial trees
Optimizing NNI: done in 0.027164 secs using 198.6% CPU
Estimate model parameters (epsilon = 0.100)
BETTER TREE FOUND at iteration 1: -4080.724
Optimizing NNI: done in 0.03054 secs using 195.1% CPU
Optimizing NNI: done in 0.0236249 secs using 198.4% CPU
Optimizing NNI: done in 0.034652 secs using 198.5% CPU
Optimizing NNI: done in 0.0187712 secs using 198.7% CPU
Optimizing NNI: done in 0.0189939 secs using 193.3% CPU
Optimizing NNI: done in 0.0364981 secs using 198.5% CPU
Optimizing NNI: done in 0.0274019 secs using 199.2% CPU
Optimizing NNI: done in 0.020839 secs using 199.3% CPU
Optimizing NNI: done in 0.0253761 secs using 198.5% CPU
Iteration 10 / LogL: -4081.904 / Time: 0h:0m:1s
Optimizing NNI: done in 0.0172868 secs using 192.9% CPU
Optimizing NNI: done in 0.0454121 secs using 198.3% CPU
Optimizing NNI: done in 0.0359981 secs using 198.4% CPU
Optimizing NNI: done in 0.0265431 secs using 195% CPU
Optimizing NNI: done in 0.011389 secs using 181% CPU
Optimizing NNI: done in 0.0216889 secs using 194.1% CPU
Estimate model parameters (epsilon = 0.100)
BETTER TREE FOUND at iteration 16: -4080.338
Optimizing NNI: done in 0.0256572 secs using 198.2% CPU
Optimizing NNI: done in 0.029664 secs using 198.7% CPU
Optimizing NNI: done in 0.0488162 secs using 198.8% CPU
Optimizing NNI: done in 0.030555 secs using 198.5% CPU
Iteration 20 / LogL: -4080.706 / Time: 0h:0m:1s
Finish initializing candidate tree set (16)
Current best tree score: -4080.338 / CPU time: 0.980
Number of iterations: 20
--------------------------------------------------------------------
|               OPTIMIZING CANDIDATE TREE SET                      |
--------------------------------------------------------------------
Optimizing NNI: done in 0.0334911 secs using 198.2% CPU
Optimizing NNI: done in 0.050283 secs using 199% CPU
Optimizing NNI: done in 0.039964 secs using 198.3% CPU
Optimizing NNI: done in 0.0390551 secs using 195.9% CPU
Optimizing NNI: done in 0.039753 secs using 199.2% CPU
Optimizing NNI: done in 0.0292919 secs using 198.4% CPU
Optimizing NNI: done in 0.0425498 secs using 198.4% CPU
Optimizing NNI: done in 0.0396042 secs using 195.4% CPU
Optimizing NNI: done in 0.0256128 secs using 198.2% CPU
Optimizing NNI: done in 0.04145 secs using 198.3% CPU
Iteration 30 / LogL: -4080.531 / Time: 0h:0m:2s (0h:0m:5s left)
Optimizing NNI: done in 0.0215449 secs using 189.4% CPU
Optimizing NNI: done in 0.0272541 secs using 198.5% CPU
Optimizing NNI: done in 0.0317302 secs using 199.2% CPU
Optimizing NNI: done in 0.0272989 secs using 198.1% CPU
Optimizing NNI: done in 0.034483 secs using 198.6% CPU
Optimizing NNI: done in 0.027246 secs using 198.5% CPU
Optimizing NNI: done in 0.04088 secs using 198.2% CPU
Optimizing NNI: done in 0.0484109 secs using 198.6% CPU
Optimizing NNI: done in 0.0412891 secs using 198.4% CPU
Optimizing NNI: done in 0.025517 secs using 198.7% CPU
Iteration 40 / LogL: -4080.778 / Time: 0h:0m:2s (0h:0m:4s left)
Optimizing NNI: done in 0.0320201 secs using 198.6% CPU
Optimizing NNI: done in 0.0433671 secs using 198.3% CPU
Optimizing NNI: done in 0.025826 secs using 198.3% CPU
Optimizing NNI: done in 0.053154 secs using 198.6% CPU
Optimizing NNI: done in 0.030067 secs using 198.3% CPU
Optimizing NNI: done in 0.0292611 secs using 197.6% CPU
Optimizing NNI: done in 0.034024 secs using 198.9% CPU
Optimizing NNI: done in 0.0368519 secs using 199.1% CPU
Optimizing NNI: done in 0.0488019 secs using 200.7% CPU
Optimizing NNI: done in 0.0384729 secs using 198.6% CPU
Iteration 50 / LogL: -4081.486 / Time: 0h:0m:2s (0h:0m:3s left)
Log-likelihood cutoff on original alignment: -4106.643
Optimizing NNI: done in 0.0459261 secs using 198.9% CPU
Optimizing NNI: done in 0.038626 secs using 198.7% CPU
Optimizing NNI: done in 0.0524549 secs using 196.1% CPU
Optimizing NNI: done in 0.0407681 secs using 193.6% CPU
Optimizing NNI: done in 0.0437849 secs using 195.8% CPU
Optimizing NNI: done in 0.0411031 secs using 198.7% CPU
Optimizing NNI: done in 0.0513201 secs using 195.3% CPU
Optimizing NNI: done in 0.032567 secs using 198% CPU
Optimizing NNI: done in 0.0437391 secs using 196.2% CPU
Optimizing NNI: done in 0.0394599 secs using 195.8% CPU
Iteration 60 / LogL: -4080.687 / Time: 0h:0m:3s (0h:0m:3s left)
Optimizing NNI: done in 0.032505 secs using 192.3% CPU
Optimizing NNI: done in 0.035917 secs using 195.8% CPU
Optimizing NNI: done in 0.043997 secs using 198.9% CPU
Optimizing NNI: done in 0.036108 secs using 198.9% CPU
Optimizing NNI: done in 0.028126 secs using 198.4% CPU
Optimizing NNI: done in 0.032747 secs using 198.2% CPU
Optimizing NNI: done in 0.0346379 secs using 198.5% CPU
Optimizing NNI: done in 0.0329711 secs using 198.5% CPU
Optimizing NNI: done in 0.0344748 secs using 198.3% CPU
Optimizing NNI: done in 0.0386882 secs using 195.7% CPU
Iteration 70 / LogL: -4084.113 / Time: 0h:0m:3s (0h:0m:2s left)
Optimizing NNI: done in 0.049895 secs using 199.1% CPU
Optimizing NNI: done in 0.0295818 secs using 198.6% CPU
Optimizing NNI: done in 0.02491 secs using 194.7% CPU
Optimizing NNI: done in 0.0395792 secs using 195.8% CPU
Optimizing NNI: done in 0.0393221 secs using 196.1% CPU
Optimizing NNI: done in 0.0441289 secs using 198.3% CPU
Optimizing NNI: done in 0.037077 secs using 196% CPU
Optimizing NNI: done in 0.0546138 secs using 198.5% CPU
Optimizing NNI: done in 0.0276172 secs using 198% CPU
Optimizing NNI: done in 0.0270791 secs using 198.8% CPU
Iteration 80 / LogL: -4087.533 / Time: 0h:0m:4s (0h:0m:1s left)
Optimizing NNI: done in 0.030916 secs using 198.7% CPU
Optimizing NNI: done in 0.0232451 secs using 194.9% CPU
Optimizing NNI: done in 0.0280752 secs using 198.4% CPU
Optimizing NNI: done in 0.0429571 secs using 198.5% CPU
Optimizing NNI: done in 0.046679 secs using 197% CPU
Optimizing NNI: done in 0.0541761 secs using 193.1% CPU
Optimizing NNI: done in 0.0618541 secs using 198.3% CPU
Optimizing NNI: done in 0.050117 secs using 196.5% CPU
Optimizing NNI: done in 0.0361011 secs using 198.6% CPU
Optimizing NNI: done in 0.0519729 secs using 197.7% CPU
Iteration 90 / LogL: -4082.761 / Time: 0h:0m:4s (0h:0m:1s left)
Optimizing NNI: done in 0.0348148 secs using 199.2% CPU
Optimizing NNI: done in 0.03128 secs using 197.6% CPU
Optimizing NNI: done in 0.037595 secs using 196.8% CPU
Optimizing NNI: done in 0.0405779 secs using 200.1% CPU
Optimizing NNI: done in 0.034323 secs using 198.5% CPU
Optimizing NNI: done in 0.0420182 secs using 198.6% CPU
Optimizing NNI: done in 0.0396609 secs using 198.8% CPU
Optimizing NNI: done in 0.0301509 secs using 198.5% CPU
Optimizing NNI: done in 0.031872 secs using 195.4% CPU
Optimizing NNI: done in 0.0430601 secs using 198.1% CPU
Iteration 100 / LogL: -4081.850 / Time: 0h:0m:5s (0h:0m:0s left)
Log-likelihood cutoff on original alignment: -4107.361
NOTE: Bootstrap correlation coefficient of split occurrence frequencies: 0.991
Optimizing NNI: done in 0.030601 secs using 198.9% CPU
Optimizing NNI: done in 0.028151 secs using 199.1% CPU
Optimizing NNI: done in 0.0530908 secs using 198.5% CPU
Optimizing NNI: done in 0.028842 secs using 198.2% CPU
Optimizing NNI: done in 0.0377209 secs using 198.3% CPU
Optimizing NNI: done in 0.0453351 secs using 198.5% CPU
Optimizing NNI: done in 0.04249 secs using 198.6% CPU
Optimizing NNI: done in 0.029604 secs using 195.7% CPU
Optimizing NNI: done in 0.044251 secs using 198.9% CPU
Optimizing NNI: done in 0.035141 secs using 195.5% CPU
Iteration 110 / LogL: -4080.575 / Time: 0h:0m:5s (0h:0m:4s left)
Optimizing NNI: done in 0.037802 secs using 196% CPU
Optimizing NNI: done in 0.0571599 secs using 198.5% CPU
Optimizing NNI: done in 0.0409081 secs using 196% CPU
Optimizing NNI: done in 0.0363638 secs using 199.1% CPU
Optimizing NNI: done in 0.058465 secs using 198.6% CPU
Optimizing NNI: done in 0.0386 secs using 198.5% CPU
Optimizing NNI: done in 0.056298 secs using 196.8% CPU
TREE SEARCH COMPLETED AFTER 117 ITERATIONS / Time: 0h:0m:6s

--------------------------------------------------------------------
|                    FINALIZING TREE SEARCH                        |
--------------------------------------------------------------------
Performs final model parameters optimization
Estimate model parameters (epsilon = 0.010)
1. Initial log-likelihood: -4080.338
Optimal log-likelihood: -4080.334
Rate parameters:  A-C: 1.00000  A-G: 1.67222  A-T: 1.00000  C-G: 1.00000  C-T: 4.15622  G-T: 1.00000
Base frequencies:  A: 0.250  C: 0.250  G: 0.250  T: 0.250
Proportion of invariable sites: 0.409
Gamma shape alpha: 0.604
Parameters optimization took 1 rounds (0.006 sec)
BEST SCORE FOUND : -4080.334

Testing tree branches by SH-like aLRT with 1000 replicates...
0.151 sec.
Creating bootstrap support values...
Split supports printed to NEXUS file aln_ITS/ALL_ITS_full.fasaln.clipkit.splits.nex
Total tree length: 1.891

Total number of iterations: 117
CPU time used for tree search: 10.764 sec (0h:0m:10s)
Wall-clock time used for tree search: 5.397 sec (0h:0m:5s)
Total CPU time used: 12.438 sec (0h:0m:12s)
Total wall-clock time used: 6.253 sec (0h:0m:6s)

Computing bootstrap consensus tree...
Reading input file aln_ITS/ALL_ITS_full.fasaln.clipkit.splits.nex...
31 taxa and 291 splits.
Consensus tree written to aln_ITS/ALL_ITS_full.fasaln.clipkit.contree
Reading input trees file aln_ITS/ALL_ITS_full.fasaln.clipkit.contree
Log-likelihood of consensus tree: -4080.729

Analysis results written to: 
  IQ-TREE report:                aln_ITS/ALL_ITS_full.fasaln.clipkit.iqtree
  Maximum-likelihood tree:       aln_ITS/ALL_ITS_full.fasaln.clipkit.treefile
  Likelihood distances:          aln_ITS/ALL_ITS_full.fasaln.clipkit.mldist

Ultrafast bootstrap approximation results written to:
  Split support values:          aln_ITS/ALL_ITS_full.fasaln.clipkit.splits.nex
  Consensus tree:                aln_ITS/ALL_ITS_full.fasaln.clipkit.contree
  Screen log file:               aln_ITS/ALL_ITS_full.fasaln.clipkit.log

Date and Time: Mon Feb 12 13:31:07 2024
